data/pglib_opf_case4619_goc_storage.m
%%%%%%%%%%%%%%%%%%%%%%%%%%%%%%%%%%%%%%%%%%%%%%%%%%%%%%%%%%%%%%%%%%%%%%%%%%%
%%%%                                                                  %%%%%
%%%%    IEEE PES Power Grid Library - Optimal Power Flow - v23.07     %%%%%
%%%%          (https://github.com/power-grid-lib/pglib-opf)           %%%%%
%%%%               Benchmark Group - Typical Operations               %%%%%
%%%%                         23 - July - 2023                         %%%%%
%%%%                                                                  %%%%%
%%%%%%%%%%%%%%%%%%%%%%%%%%%%%%%%%%%%%%%%%%%%%%%%%%%%%%%%%%%%%%%%%%%%%%%%%%%
%
%   This is a synthetic 4,619 bus case, developed for use in ARPA-e's Grid
%   Optimization Competition, Challenge 1.
%
%   https://gocompetition.energy.gov/challenges/22/datasets
%
%   Copyright (c) 2020 University of Wisconsin-Madison
%   https://dev.epigrids.discovery.wisc.edu/
%   Licensed under the Creative Commons Attribution 4.0 International license,
%   http://creativecommons.org/licenses/by/4.0/
%
% Modified to have additional storage capacity and increased gencost
function mpc = pglib_opf_case4619_goc
mpc.version = '2';
mpc.baseMVA = 100.0;

%% bus data
%	bus_i	type	Pd	Qd	Gs	Bs	area	Vm	Va	baseKV	zone	Vmax	Vmin
mpc.bus = [
	46843	 2	 0.0	 0.0	 0.0	 0.0	 1	    1.00000	    0.00000	 500.0	 1	    1.10000	    0.90000;
	46844	 2	 0.0	 0.0	 0.0	 0.0	 1	    1.00000	    0.00000	 500.0	 1	    1.10000	    0.90000;
	46845	 1	 0.0	 0.0	 0.0	 0.0	 1	    1.00000	    0.00000	 500.0	 1	    1.10000	    0.90000;
	46846	 2	 0.0	 0.0	 0.0	 0.0	 1	    1.00000	    0.00000	 500.0	 1	    1.10000	    0.90000;
	46847	 1	 0.0	 0.0	 0.0	 0.0	 1	    1.00000	    0.00000	 230.0	 1	    1.10000	    0.90000;
	46848	 1	 1.0	 330.0	 0.0	 0.0	 1	    1.00000	    0.00000	 500.0	 1	    1.10000	    0.90000;
	46849	 2	 0.0	 0.0	 0.0	 0.0	 1	    1.00000	    0.00000	 500.0	 1	    1.10000	    0.90000;
	46850	 2	 0.0	 0.0	 0.0	 0.0	 1	    1.00000	    0.00000	 500.0	 1	    1.10000	    0.90000;
	46851	 2	 0.0	 0.0	 0.0	 0.0	 1	    1.00000	    0.00000	 500.0	 1	    1.10000	    0.90000;
	46852	 2	 0.0	 0.0	 0.0	 0.0	 1	    1.00000	    0.00000	 345.0	 1	    1.10000	    0.90000;
	46853	 3	 0.0	 0.0	 0.0	 0.0	 1	    1.00000	    0.00000	 500.0	 1	    1.10000	    0.90000;
	46854	 1	 0.0	 0.0	 0.0	 0.0	 1	    1.00000	    0.00000	 69.0	 1	    1.10000	    0.90000;
	46855	 1	 0.0	 0.0	 0.0	 0.0	 1	    1.00000	    0.00000	 138.0	 1	    1.10000	    0.90000;
	46856	 1	 0.0	 0.0	 0.0	 0.0	 1	    1.00000	    0.00000	 500.0	 1	    1.10000	    0.90000;
	46857	 1	 0.0	 0.0	 0.0	 0.0	 1	    1.00000	    0.00000	 230.0	 1	    1.10000	    0.90000;
	46858	 1	 0.0	 0.0	 0.0	 0.0	 1	    1.00000	    0.00000	 230.0	 1	    1.10000	    0.90000;
	46859	 2	 0.0	 0.0	 0.0	 0.0	 1	    1.00000	    0.00000	 500.0	 1	    1.10000	    0.90000;
	46860	 2	 0.0	 0.0	 0.0	 0.0	 1	    1.00000	    0.00000	 500.0	 1	    1.10000	    0.90000;
	46861	 1	 0.0	 0.0	 0.0	 0.0	 1	    1.00000	    0.00000	 69.0	 1	    1.10000	    0.90000;
	46862	 2	 0.0	 0.0	 0.0	 0.0	 1	    1.00000	    0.00000	 138.0	 1	    1.10000	    0.90000;
	46863	 2	 0.0	 0.0	 0.0	 0.0	 1	    1.00000	    0.00000	 500.0	 1	    1.10000	    0.90000;
	46864	 1	 0.0	 0.0	 0.0	 0.0	 1	    1.00000	    0.00000	 500.0	 1	    1.10000	    0.90000;
	46865	 1	 0.0	 0.0	 0.0	 0.0	 1	    1.00000	    0.00000	 138.0	 1	    1.10000	    0.90000;
	46866	 2	 0.0	 0.0	 0.0	 0.0	 1	    1.00000	    0.00000	 69.0	 1	    1.10000	    0.90000;
	46867	 1	 0.0	 0.0	 0.0	 0.0	 1	    1.00000	    0.00000	 230.0	 1	    1.10000	    0.90000;
	46868	 1	 0.0	 0.0	 0.0	 0.0	 1	    1.00000	    0.00000	 500.0	 1	    1.10000	    0.90000;
	46869	 1	 0.0	 0.0	 0.0	 0.0	 1	    1.00000	    0.00000	 230.0	 1	    1.10000	    0.90000;
	46870	 1	 0.0	 0.0	 0.0	 0.0	 1	    1.00000	    0.00000	 345.0	 1	    1.10000	    0.90000;
	46871	 2	 0.0	 0.0	 0.0	 0.0	 1	    1.00000	    0.00000	 69.0	 1	    1.10000	    0.90000;
	46872	 2	 0.0	 0.0	 0.0	 0.0	 1	    1.00000	    0.00000	 69.0	 1	    1.10000	    0.90000;
	46873	 1	 0.0	 0.0	 0.0	 0.0	 1	    1.00000	    0.00000	 345.0	 1	    1.10000	    0.90000;
	46874	 2	 0.0	 0.0	 0.0	 0.0	 1	    1.00000	    0.00000	 69.0	 1	    1.10000	    0.90000;
	46875	 1	 0.0	 0.0	 0.0	 0.0	 1	    1.00000	    0.00000	 138.0	 1	    1.10000	    0.90000;
	46876	 2	 0.0	 -3.42	 0.0	 0.0	 1	    1.00000	    0.00000	 69.0	 1	    1.10000	    0.90000;
	46877	 1	 0.0	 0.0	 0.0	 0.0	 1	    1.00000	    0.00000	 138.0	 1	    1.10000	    0.90000;
	46878	 1	 0.0	 0.0	 0.0	 0.0	 1	    1.00000	    0.00000	 345.0	 1	    1.10000	    0.90000;
	46879	 1	 0.0	 0.0	 0.0	 0.0	 1	    1.00000	    0.00000	 230.0	 1	    1.10000	    0.90000;
	46880	 1	 0.0	 0.0	 0.0	 0.0	 1	    1.00000	    0.00000	 230.0	 1	    1.10000	    0.90000;
	46881	 2	 0.0	 0.0	 0.0	 0.0	 1	    1.00000	    0.00000	 500.0	 1	    1.10000	    0.90000;
	46882	 1	 0.0	 0.0	 0.0	 0.0	 1	    1.00000	    0.00000	 345.0	 1	    1.10000	    0.90000;
	46883	 1	 0.0	 0.0	 0.0	 0.0	 1	    1.00000	    0.00000	 138.0	 1	    1.10000	    0.90000;
	46884	 1	 0.0	 0.0	 0.0	 0.0	 1	    1.00000	    0.00000	 500.0	 1	    1.10000	    0.90000;
	46885	 1	 0.0	 0.0	 0.0	 0.0	 1	    1.00000	    0.00000	 500.0	 1	    1.10000	    0.90000;
	46886	 1	 0.0	 0.0	 0.0	 0.0	 1	    1.00000	    0.00000	 500.0	 1	    1.10000	    0.90000;
	46887	 1	 0.0	 0.0	 0.0	 0.0	 1	    1.00000	    0.00000	 230.0	 1	    1.10000	    0.90000;
	46888	 2	 0.0	 0.0	 0.0	 0.0	 1	    1.00000	    0.00000	 230.0	 1	    1.10000	    0.90000;
	46889	 1	 0.0	 0.0	 0.0	 0.0	 1	    1.00000	    0.00000	 345.0	 1	    1.10000	    0.90000;
	46890	 1	 0.0	 0.0	 0.0	 0.0	 1	    1.00000	    0.00000	 500.0	 1	    1.10000	    0.90000;
	46891	 1	 0.0	 0.0	 0.0	 0.0	 1	    1.00000	    0.00000	 500.0	 1	    1.10000	    0.90000;
	46892	 1	 0.0	 0.0	 0.0	 0.0	 1	    1.00000	    0.00000	 345.0	 1	    1.10000	    0.90000;
	46893	 1	 0.0	 0.0	 0.0	 0.0	 1	    1.00000	    0.00000	 345.0	 1	    1.10000	    0.90000;
	46894	 1	 0.0	 0.0	 0.0	 0.0	 1	    1.00000	    0.00000	 230.0	 1	    1.10000	    0.90000;
	46895	 2	 0.0	 0.0	 0.0	 0.0	 1	    1.00000	    0.00000	 230.0	 1	    1.10000	    0.90000;
	46896	 2	 0.0	 0.0	 0.0	 0.0	 1	    1.00000	    0.00000	 230.0	 1	    1.10000	    0.90000;
	46897	 2	 0.0	 0.0	 0.0	 0.0	 1	    1.00000	    0.00000	 345.0	 1	    1.10000	    0.90000;
	46898	 1	 0.0	 0.0	 0.0	 0.0	 1	    1.00000	    0.00000	 500.0	 1	    1.10000	    0.90000;
	46899	 2	 0.0	 0.0	 0.0	 0.0	 1	    1.00000	    0.00000	 230.0	 1	    1.10000	    0.90000;
	46900	 2	 0.0	 0.0	 0.0	 0.0	 1	    1.00000	    0.00000	 500.0	 1	    1.10000	    0.90000;
	46901	 2	 0.0	 0.0	 0.0	 0.0	 1	    1.00000	    0.00000	 345.0	 1	    1.10000	    0.90000;
	46902	 1	 0.0	 0.0	 0.0	 0.0	 1	    1.00000	    0.00000	 230.0	 1	    1.10000	    0.90000;
	46903	 1	 0.0	 0.0	 0.0	 0.0	 1	    1.00000	    0.00000	 500.0	 1	    1.10000	    0.90000;
	46904	 2	 0.0	 0.0	 0.0	 0.0	 1	    1.00000	    0.00000	 230.0	 1	    1.10000	    0.90000;
	46905	 2	 0.0	 0.0	 0.0	 0.0	 1	    1.00000	    0.00000	 138.0	 1	    1.10000	    0.90000;
	46906	 1	 0.0	 0.0	 0.0	 0.0	 1	    1.00000	    0.00000	 345.0	 1	    1.10000	    0.90000;
	46907	 1	 0.0	 0.0	 0.0	 0.0	 1	    1.00000	    0.00000	 138.0	 1	    1.10000	    0.90000;
	46908	 1	 0.0	 0.0	 0.0	 0.0	 1	    1.00000	    0.00000	 345.0	 1	    1.10000	    0.90000;
	46909	 2	 0.0	 0.0	 0.0	 0.0	 1	    1.00000	    0.00000	 230.0	 1	    1.10000	    0.90000;
	46910	 1	 0.0	 0.0	 0.0	 0.0	 1	    1.00000	    0.00000	 345.0	 1	    1.10000	    0.90000;
	46911	 2	 0.0	 0.0	 0.0	 0.0	 1	    1.00000	    0.00000	 138.0	 1	    1.10000	    0.90000;
	46912	 2	 0.0	 0.0	 0.0	 0.0	 1	    1.00000	    0.00000	 69.0	 1	    1.10000	    0.90000;
	46913	 1	 0.0	 0.0	 0.0	 0.0	 1	    1.00000	    0.00000	 69.0	 1	    1.10000	    0.90000;
	46914	 1	 0.0	 0.0	 0.0	 0.0	 1	    1.00000	    0.00000	 500.0	 1	    1.10000	    0.90000;
	46915	 1	 0.0	 0.0	 0.0	 0.0	 1	    1.00000	    0.00000	 138.0	 1	    1.10000	    0.90000;
	46916	 1	 0.0	 0.0	 0.0	 0.0	 1	    1.00000	    0.00000	 500.0	 1	    1.10000	    0.90000;
	46917	 2	 0.0	 0.0	 0.0	 0.0	 1	    1.00000	    0.00000	 138.0	 1	    1.10000	    0.90000;
	46918	 1	 0.0	 0.0	 0.0	 0.0	 1	    1.00000	    0.00000	 345.0	 1	    1.10000	    0.90000;
	46919	 2	 0.0	 0.0	 0.0	 0.0	 1	    1.00000	    0.00000	 69.0	 1	    1.10000	    0.90000;
	46920	 2	 0.0	 0.0	 0.0	 0.0	 1	    1.00000	    0.00000	 69.0	 1	    1.10000	    0.90000;
	46921	 1	 0.0	 0.0	 0.0	 0.0	 1	    1.00000	    0.00000	 138.0	 1	    1.10000	    0.90000;
	46922	 2	 0.0	 0.0	 0.0	 0.0	 1	    1.00000	    0.00000	 230.0	 1	    1.10000	    0.90000;
	46923	 2	 0.0	 0.0	 0.0	 0.0	 1	    1.00000	    0.00000	 230.0	 1	    1.10000	    0.90000;
	46924	 2	 0.0	 0.0	 0.0	 0.0	 1	    1.00000	    0.00000	 138.0	 1	    1.10000	    0.90000;
	46925	 1	 0.0	 0.0	 0.0	 0.0	 1	    1.00000	    0.00000	 138.0	 1	    1.10000	    0.90000;
	46926	 2	 0.0	 0.0	 0.0	 0.0	 1	    1.00000	    0.00000	 138.0	 1	    1.10000	    0.90000;
	46927	 2	 0.0	 0.0	 0.0	 0.0	 1	    1.00000	    0.00000	 69.0	 1	    1.10000	    0.90000;
	46928	 1	 0.0	 0.0	 0.0	 0.0	 1	    1.00000	    0.00000	 230.0	 1	    1.10000	    0.90000;
	46929	 2	 0.0	 0.0	 0.0	 0.0	 1	    1.00000	    0.00000	 69.0	 1	    1.10000	    0.90000;
	46930	 1	 0.0	 0.0	 0.0	 0.0	 1	    1.00000	    0.00000	 138.0	 1	    1.10000	    0.90000;
	46931	 1	 0.0	 0.0	 0.0	 0.0	 1	    1.00000	    0.00000	 138.0	 1	    1.10000	    0.90000;
	46932	 1	 0.0	 0.0	 0.0	 0.0	 1	    1.00000	    0.00000	 138.0	 1	    1.10000	    0.90000;
	46933	 1	 0.0	 0.0	 0.0	 0.0	 1	    1.00000	    0.00000	 69.0	 1	    1.10000	    0.90000;
	46934	 2	 0.0	 0.0	 0.0	 0.0	 1	    1.00000	    0.00000	 138.0	 1	    1.10000	    0.90000;
	46935	 1	 0.0	 0.0	 0.0	 0.0	 1	    1.00000	    0.00000	 345.0	 1	    1.10000	    0.90000;
	46936	 2	 0.0	 0.0	 0.0	 0.0	 1	    1.00000	    0.00000	 69.0	 1	    1.10000	    0.90000;
	46937	 2	 0.0	 0.0	 0.0	 0.0	 1	    1.00000	    0.00000	 345.0	 1	    1.10000	    0.90000;
	46938	 1	 0.0	 0.0	 0.0	 0.0	 1	    1.00000	    0.00000	 230.0	 1	    1.10000	    0.90000;
	46939	 1	 0.0	 0.0	 0.0	 0.0	 1	    1.00000	    0.00000	 500.0	 1	    1.10000	    0.90000;
	46940	 2	 0.0	 -6.536	 0.0	 0.0	 1	    1.00000	    0.00000	 69.0	 1	    1.10000	    0.90000;
	46941	 2	 0.0	 0.0	 0.0	 0.0	 1	    1.00000	    0.00000	 138.0	 1	    1.10000	    0.90000;
	46942	 2	 0.0	 -9.88	 0.0	 0.0	 1	    1.00000	    0.00000	 69.0	 1	    1.10000	    0.90000;
	46943	 1	 0.0	 0.0	 0.0	 0.0	 1	    1.00000	    0.00000	 69.0	 1	    1.10000	    0.90000;
	46944	 1	 0.0	 0.0	 0.0	 0.0	 1	    1.00000	    0.00000	 69.0	 1	    1.10000	    0.90000;
	46945	 1	 0.0	 0.0	 0.0	 0.0	 1	    1.00000	    0.00000	 345.0	 1	    1.10000	    0.90000;
	46946	 1	 0.0	 0.0	 0.0	 0.0	 1	    1.00000	    0.00000	 345.0	 1	    1.10000	    0.90000;
	46947	 1	 0.0	 0.0	 0.0	 0.0	 1	    1.00000	    0.00000	 500.0	 1	    1.10000	    0.90000;
	46948	 1	 0.0	 0.0	 0.0	 0.0	 1	    1.00000	    0.00000	 500.0	 1	    1.10000	    0.90000;
	46949	 1	 0.0	 0.0	 0.0	 0.0	 1	    1.00000	    0.00000	 230.0	 1	    1.10000	    0.90000;
	46950	 2	 0.0	 0.0	 0.0	 0.0	 1	    1.00000	    0.00000	 345.0	 1	    1.10000	    0.90000;
	46951	 2	 0.0	 0.0	 0.0	 0.0	 1	    1.00000	    0.00000	 230.0	 1	    1.10000	    0.90000;
	46952	 1	 0.0	 0.0	 0.0	 0.0	 1	    1.00000	    0.00000	 230.0	 1	    1.10000	    0.90000;
	46953	 1	 0.0	 0.0	 0.0	 0.0	 1	    1.00000	    0.00000	 500.0	 1	    1.10000	    0.90000;
	46954	 1	 0.0	 0.0	 0.0	 0.0	 1	    1.00000	    0.00000	 500.0	 1	    1.10000	    0.90000;
	46955	 1	 0.0	 0.0	 0.0	 0.0	 1	    1.00000	    0.00000	 230.0	 1	    1.10000	    0.90000;
	46956	 2	 0.0	 0.0	 0.0	 0.0	 1	    1.00000	    0.00000	 500.0	 1	    1.10000	    0.90000;
	46957	 2	 0.0	 0.0	 0.0	 0.0	 1	    1.00000	    0.00000	 345.0	 1	    1.10000	    0.90000;
	46958	 1	 0.0	 0.0	 0.0	 0.0	 1	    1.00000	    0.00000	 345.0	 1	    1.10000	    0.90000;
	46959	 1	 0.0	 0.0	 0.0	 0.0	 1	    1.00000	    0.00000	 230.0	 1	    1.10000	    0.90000;
	46960	 1	 0.0	 0.0	 0.0	 0.0	 1	    1.00000	    0.00000	 500.0	 1	    1.10000	    0.90000;
	46961	 2	 0.0	 0.0	 0.0	 0.0	 1	    1.00000	    0.00000	 230.0	 1	    1.10000	    0.90000;
	46962	 1	 0.0	 0.0	 0.0	 0.0	 1	    1.00000	    0.00000	 230.0	 1	    1.10000	    0.90000;
	46963	 2	 0.0	 0.0	 0.0	 0.0	 1	    1.00000	    0.00000	 69.0	 1	    1.10000	    0.90000;
	46964	 2	 0.0	 0.0	 0.0	 0.0	 1	    1.00000	    0.00000	 138.0	 1	    1.10000	    0.90000;
	46965	 2	 0.0	 0.0	 0.0	 0.0	 1	    1.00000	    0.00000	 345.0	 1	    1.10000	    0.90000;
	46966	 2	 0.0	 0.0	 0.0	 0.0	 1	    1.00000	    0.00000	 69.0	 1	    1.10000	    0.90000;
	46967	 2	 0.0	 0.0	 0.0	 0.0	 1	    1.00000	    0.00000	 138.0	 1	    1.10000	    0.90000;
	46968	 2	 0.0	 0.0	 0.0	 0.0	 1	    1.00000	    0.00000	 230.0	 1	    1.10000	    0.90000;
	46969	 2	 0.0	 0.0	 0.0	 0.0	 1	    1.00000	    0.00000	 138.0	 1	    1.10000	    0.90000;
	46970	 1	 0.0	 0.0	 0.0	 0.0	 1	    1.00000	    0.00000	 138.0	 1	    1.10000	    0.90000;
	46971	 1	 0.0	 0.0	 0.0	 0.0	 1	    1.00000	    0.00000	 69.0	 1	    1.10000	    0.90000;
	46972	 1	 0.0	 0.0	 0.0	 0.0	 1	    1.00000	    0.00000	 230.0	 1	    1.10000	    0.90000;
	46973	 1	 0.0	 0.0	 0.0	 0.0	 1	    1.00000	    0.00000	 69.0	 1	    1.10000	    0.90000;
	46974	 1	 0.0	 0.0	 0.0	 0.0	 1	    1.00000	    0.00000	 69.0	 1	    1.10000	    0.90000;
	46975	 1	 0.0	 0.0	 0.0	 0.0	 1	    1.00000	    0.00000	 69.0	 1	    1.10000	    0.90000;
	46976	 1	 0.0	 0.0	 0.0	 0.0	 1	    1.00000	    0.00000	 230.0	 1	    1.10000	    0.90000;
	46977	 2	 0.0	 0.0	 0.0	 0.0	 1	    1.00000	    0.00000	 138.0	 1	    1.10000	    0.90000;
	46978	 1	 0.0	 0.0	 0.0	 0.0	 1	    1.00000	    0.00000	 230.0	 1	    1.10000	    0.90000;
	46979	 2	 0.0	 0.0	 0.0	 0.0	 1	    1.00000	    0.00000	 138.0	 1	    1.10000	    0.90000;
	46980	 1	 0.0	 0.0	 0.0	 0.0	 1	    1.00000	    0.00000	 138.0	 1	    1.10000	    0.90000;
	46981	 2	 0.0	 0.0	 0.0	 0.0	 1	    1.00000	    0.00000	 138.0	 1	    1.10000	    0.90000;
	46982	 1	 0.0	 0.0	 0.0	 0.0	 1	    1.00000	    0.00000	 138.0	 1	    1.10000	    0.90000;
	46983	 1	 0.0	 0.0	 0.0	 0.0	 1	    1.00000	    0.00000	 138.0	 1	    1.10000	    0.90000;
	46984	 1	 0.0	 0.0	 0.0	 0.0	 1	    1.00000	    0.00000	 230.0	 1	    1.10000	    0.90000;
	46985	 1	 0.0	 0.0	 0.0	 0.0	 1	    1.00000	    0.00000	 500.0	 1	    1.10000	    0.90000;
	46986	 1	 0.0	 0.0	 0.0	 0.0	 1	    1.00000	    0.00000	 138.0	 1	    1.10000	    0.90000;
	46987	 2	 0.0	 0.0	 0.0	 0.0	 1	    1.00000	    0.00000	 138.0	 1	    1.10000	    0.90000;
	46988	 1	 0.0	 0.0	 0.0	 0.0	 1	    1.00000	    0.00000	 345.0	 1	    1.10000	    0.90000;
	46989	 2	 0.0	 0.0	 0.0	 0.0	 1	    1.00000	    0.00000	 69.0	 1	    1.10000	    0.90000;
	46990	 1	 0.0	 0.0	 0.0	 0.0	 1	    1.00000	    0.00000	 230.0	 1	    1.10000	    0.90000;
	46991	 2	 0.0	 0.0	 0.0	 0.0	 1	    1.00000	    0.00000	 69.0	 1	    1.10000	    0.90000;
	46992	 2	 0.0	 0.0	 0.0	 0.0	 1	    1.00000	    0.00000	 69.0	 1	    1.10000	    0.90000;
	46993	 1	 0.0	 0.0	 0.0	 0.0	 1	    1.00000	    0.00000	 69.0	 1	    1.10000	    0.90000;
	46994	 1	 0.0	 0.0	 0.0	 0.0	 1	    1.00000	    0.00000	 69.0	 1	    1.10000	    0.90000;
	46995	 2	 0.0	 0.0	 0.0	 3.17078093532	 1	    1.00000	    0.00000	 69.0	 1	    1.10000	    0.90000;
	46996	 1	 0.0	 0.0	 0.0	 0.0	 1	    1.00000	    0.00000	 69.0	 1	    1.10000	    0.90000;
	46997	 2	 0.0	 0.0	 0.0	 0.0	 1	    1.00000	    0.00000	 69.0	 1	    1.10000	    0.90000;
	46998	 2	 0.0	 -6.992	 0.0	 0.0	 1	    1.00000	    0.00000	 69.0	 1	    1.10000	    0.90000;
	46999	 1	 0.0	 0.0	 0.0	 0.0	 1	    1.00000	    0.00000	 69.0	 1	    1.10000	    0.90000;
	47000	 2	 0.0	 0.0	 0.0	 0.0	 1	    1.00000	    0.00000	 69.0	 1	    1.10000	    0.90000;
	47001	 2	 0.0	 0.0	 0.0	 0.0	 1	    1.00000	    0.00000	 69.0	 1	    1.10000	    0.90000;
	47002	 1	 0.0	 0.0	 0.0	 0.0	 1	    1.00000	    0.00000	 138.0	 1	    1.10000	    0.90000;
	47003	 1	 0.0	 0.0	 0.0	 0.0	 1	    1.00000	    0.00000	 138.0	 1	    1.10000	    0.90000;
	47004	 2	 0.0	 0.0	 0.0	 0.0	 1	    1.00000	    0.00000	 69.0	 1	    1.10000	    0.90000;
	47005	 1	 0.0	 0.0	 0.0	 0.0	 1	    1.00000	    0.00000	 69.0	 1	    1.10000	    0.90000;
	47006	 2	 0.0	 0.0	 0.0	 0.0	 1	    1.00000	    0.00000	 69.0	 1	    1.10000	    0.90000;
	47007	 1	 0.0	 0.0	 0.0	 0.0	 1	    1.00000	    0.00000	 500.0	 1	    1.10000	    0.90000;
	47008	 1	 0.0	 0.0	 0.0	 0.0	 1	    1.00000	    0.00000	 138.0	 1	    1.10000	    0.90000;
	47009	 1	 0.0	 0.0	 0.0	 0.0	 1	    1.00000	    0.00000	 230.0	 1	    1.10000	    0.90000;
	47010	 2	 0.0	 0.0	 0.0	 0.0	 1	    1.00000	    0.00000	 69.0	 1	    1.10000	    0.90000;
	47011	 1	 0.0	 0.0	 0.0	 0.0	 1	    1.00000	    0.00000	 500.0	 1	    1.10000	    0.90000;
	47012	 1	 2.28	 0.608	 0.0	 0.0	 1	    1.00000	    0.00000	 69.0	 1	    1.10000	    0.90000;
	47013	 1	 10.412	 2.356	 0.0	 0.0	 1	    1.00000	    0.00000	 69.0	 1	    1.10000	    0.90000;
	47014	 1	 3.344	 0.836	 0.0	 0.0	 1	    1.00000	    0.00000	 69.0	 1	    1.10000	    0.90000;
	47015	 1	 6.46	 1.672	 0.0	 0.0	 1	    1.00000	    0.00000	 69.0	 1	    1.10000	    0.90000;
	47016	 1	 2.964	 0.684	 0.0	 0.0	 1	    1.00000	    0.00000	 69.0	 1	    1.10000	    0.90000;
	47017	 1	 0.0	 0.0	 0.0	 0.0	 1	    1.00000	    0.00000	 138.0	 1	    1.10000	    0.90000;
	47018	 1	 0.0	 0.0	 0.0	 0.0	 1	    1.00000	    0.00000	 138.0	 1	    1.10000	    0.90000;
	47019	 1	 4.484	 1.292	 0.0	 0.0	 1	    1.00000	    0.00000	 69.0	 1	    1.10000	    0.90000;
	47020	 1	 2.736	 0.684	 0.0	 0.0	 1	    1.00000	    0.00000	 138.0	 1	    1.10000	    0.90000;
	47021	 1	 0.0	 0.0	 0.0	 0.0	 1	    1.00000	    0.00000	 230.0	 1	    1.10000	    0.90000;
	47022	 1	 1.672	 0.532	 0.0	 0.0	 1	    1.00000	    0.00000	 230.0	 1	    1.10000	    0.90000;
	47023	 1	 2.128	 0.684	 0.0	 0.0	 1	    1.00000	    0.00000	 138.0	 1	    1.10000	    0.90000;
	47024	 1	 0.0	 0.0	 0.0	 0.0	 1	    1.00000	    0.00000	 138.0	 1	    1.10000	    0.90000;
	47025	 1	 1.9	 0.608	 0.0	 0.0	 1	    1.00000	    0.00000	 69.0	 1	    1.10000	    0.90000;
	47026	 1	 8.74	 2.128	 0.0	 0.0	 1	    1.00000	    0.00000	 69.0	 1	    1.10000	    0.90000;
	47027	 1	 3.192	 0.912	 0.0	 0.0	 1	    1.00000	    0.00000	 69.0	 1	    1.10000	    0.90000;
	47028	 1	 7.98	 2.204	 0.0	 0.0	 1	    1.00000	    0.00000	 69.0	 1	    1.10000	    0.90000;
	47029	 1	 3.268	 0.988	 0.0	 0.0	 1	    1.00000	    0.00000	 69.0	 1	    1.10000	    0.90000;
	47030	 1	 3.268	 0.988	 0.0	 0.0	 1	    1.00000	    0.00000	 69.0	 1	    1.10000	    0.90000;
	47031	 1	 2.432	 0.684	 0.0	 0.0	 1	    1.00000	    0.00000	 69.0	 1	    1.10000	    0.90000;
	47032	 1	 2.28	 0.76	 0.0	 0.0	 1	    1.00000	    0.00000	 69.0	 1	    1.10000	    0.90000;
	47033	 1	 4.408	 1.596	 0.0	 0.0	 1	    1.00000	    0.00000	 69.0	 1	    1.10000	    0.90000;
	47034	 1	 11.172	 2.888	 0.0	 0.0	 1	    1.00000	    0.00000	 69.0	 1	    1.10000	    0.90000;
	47035	 1	 3.42	 1.064	 0.0	 0.0	 1	    1.00000	    0.00000	 69.0	 1	    1.10000	    0.90000;
	47036	 1	 3.42	 1.064	 0.0	 0.0	 1	    1.00000	    0.00000	 69.0	 1	    1.10000	    0.90000;
	47037	 1	 11.172	 2.964	 0.0	 0.0	 1	    1.00000	    0.00000	 69.0	 1	    1.10000	    0.90000;
	47038	 1	 7.296	 1.748	 0.0	 0.0	 1	    1.00000	    0.00000	 69.0	 1	    1.10000	    0.90000;
	47039	 1	 3.496	 1.064	 0.0	 0.0	 1	    1.00000	    0.00000	 69.0	 1	    1.10000	    0.90000;
	47040	 1	 0.0	 0.0	 0.0	 0.0	 1	    1.00000	    0.00000	 230.0	 1	    1.10000	    0.90000;
	47041	 1	 0.0	 0.0	 0.0	 0.0	 1	    1.00000	    0.00000	 230.0	 1	    1.10000	    0.90000;
	47042	 1	 1.976	 0.532	 0.0	 0.0	 1	    1.00000	    0.00000	 69.0	 1	    1.10000	    0.90000;
...
];

%% generator data
%	bus	Pg	Qg	Qmax	Qmin	Vg	mBase	status	Pmax	Pmin
mpc.gen = [
	46843	 728.0625	 0.0	 309.8	 -309.8	 1.0	 100.0	 1	 801.125	 655.0;
	46843	 661.0625	 68.15	 437.1	 -300.8	 1.0	 100.0	 1	 767.125	 555.0;
	46844	 482.5	 67.95	 435.9	 -300.0	 1.0	 100.0	 1	 765.0	 200.0;
	46844	 482.5	 67.95	 435.9	 -300.0	 1.0	 100.0	 1	 765.0	 200.0;
	46846	 456.0	 54.35	 348.7	 -240.0	 1.0	 100.0	 1	 612.0	 300.0;
	46849	 173.85	 18.25	 117.2	 -80.7	 1.0	 100.0	 1	 205.7	 142.0;
	46849	 173.85	 18.25	 117.2	 -80.7	 1.0	 100.0	 1	 205.7	 142.0;
	46849	 152.85	 19.8	 126.9	 -87.3	 1.0	 100.0	 1	 222.7	 83.0;
	46850	 150.2125	 40.15	 173.8	 -93.5	 1.0	 100.0	 1	 238.425	 62.0;
	46850	 134.7025	 28.55	 123.5	 -66.4	 1.0	 100.0	 1	 169.405	 100.0;
	46850	 134.7025	 28.55	 123.5	 -66.4	 1.0	 100.0	 1	 169.405	 100.0;
	46851	 152.225	 23.9	 153.5	 -105.7	 1.0	 100.0	 1	 269.45	 35.0;
	46851	 124.5325	 15.0	 96.3	 -66.3	 1.0	 100.0	 1	 169.065	 80.0;
	46851	 124.5325	 15.0	 96.3	 -66.3	 1.0	 100.0	 1	 169.065	 80.0;
	46852	 126.5	 25.8	 111.6	 -60.0	 1.0	 100.0	 1	 153.0	 100.0;
	46852	 29.8	 4.2	 27.1	 -18.7	 1.0	 100.0	 1	 47.6	 12.0;
	46853	 119.8	 25.2	 109.1	 -58.7	 1.0	 100.0	 1	 149.6	 90.0;
	46853	 178.375	 36.5	 158.0	 -85.0	 1.0	 100.0	 1	 216.75	 140.0;
	46853	 119.8	 25.2	 109.1	 -58.7	 1.0	 100.0	 1	 149.6	 90.0;
	46853	 119.8	 25.2	 109.1	 -58.7	 1.0	 100.0	 1	 149.6	 90.0;
	46853	 119.8	 25.2	 109.1	 -58.7	 1.0	 100.0	 1	 149.6	 90.0;
	46853	 119.8	 25.2	 109.1	 -58.7	 1.0	 100.0	 1	 149.6	 90.0;
	46853	 119.8	 25.2	 109.1	 -58.7	 1.0	 100.0	 1	 149.6	 90.0;
	46853	 119.8	 25.2	 109.1	 -58.7	 1.0	 100.0	 1	 149.6	 90.0;
	46853	 119.8	 25.2	 109.1	 -58.7	 1.0	 100.0	 1	 149.6	 90.0;
	46853	 178.375	 36.5	 158.0	 -85.0	 1.0	 100.0	 1	 216.75	 140.0;
	46859	 13.1625	 2.275	 11.05	 -6.5	 1.0	 100.0	 1	 16.575	 9.75;
	46859	 13.1625	 2.275	 11.05	 -6.5	 1.0	 100.0	 1	 16.575	 9.75;
	46859	 13.1625	 2.275	 11.05	 -6.5	 1.0	 100.0	 1	 16.575	 9.75;
	46859	 13.1625	 2.275	 11.05	 -6.5	 1.0	 100.0	 1	 16.575	 9.75;
	46860	 85.91	 18.2	 88.5	 -52.1	 1.0	 100.0	 1	 132.77	 39.05;
	46862	 33.8	 0.0	 18.4	 -18.4	 1.0	 100.0	 1	 47.6	 20.0;
	46862	 33.8	 0.0	 18.4	 -18.4	 1.0	 100.0	 1	 47.6	 20.0;
	46863	 35.175	 7.3	 31.6	 -17.0	 1.0	 100.0	 1	 43.35	 27.0;
	46863	 35.175	 7.3	 31.6	 -17.0	 1.0	 100.0	 1	 43.35	 27.0;
	46863	 35.175	 7.3	 31.6	 -17.0	 1.0	 100.0	 1	 43.35	 27.0;
	46863	 35.175	 7.3	 31.6	 -17.0	 1.0	 100.0	 1	 43.35	 27.0;
	46863	 35.175	 7.3	 31.6	 -17.0	 1.0	 100.0	 1	 43.35	 27.0;
	46863	 35.175	 7.3	 31.6	 -17.0	 1.0	 100.0	 1	 43.35	 27.0;
	46863	 60.625	 7.95	 50.9	 -35.0	 1.0	 100.0	 1	 89.25	 32.0;
	46863	 60.625	 7.95	 50.9	 -35.0	 1.0	 100.0	 1	 89.25	 32.0;
	46863	 52.4875	 11.95	 51.7	 -27.8	 1.0	 100.0	 1	 70.975	 34.0;
	46866	 22.085	 3.05	 19.5	 -13.4	 1.0	 100.0	 1	 34.17	 10.0;
	46866	 22.085	 3.05	 19.5	 -13.4	 1.0	 100.0	 1	 34.17	 10.0;
	46871	 25.9375	 2.85	 18.2	 -12.5	 1.0	 100.0	 1	 31.875	 20.0;
	46871	 25.9375	 2.85	 18.2	 -12.5	 1.0	 100.0	 1	 31.875	 20.0;
	46872	 5.09	 0.0	 3.533	 -3.533	 1.0	 100.0	 1	 9.18	 1.0;
	46872	 5.09	 0.0	 3.533	 -3.533	 1.0	 100.0	 1	 9.18	 1.0;
	46872	 5.09	 0.0	 3.533	 -3.533	 1.0	 100.0	 1	 9.18	 1.0;
	46874	 19.4	 2.15	 13.6	 -9.3	 1.0	 100.0	 1	 23.8	 15.0;
	46874	 19.4	 2.15	 13.6	 -9.3	 1.0	 100.0	 1	 23.8	 15.0;
	46876	 6.1125	 0.65	 4.133	 -2.833	 1.0	 100.0	 1	 7.225	 5.0;
	46876	 6.1125	 0.65	 4.133	 -2.833	 1.0	 100.0	 1	 7.225	 5.0;
	46876	 6.1125	 0.65	 4.133	 -2.833	 1.0	 100.0	 1	 7.225	 5.0;
	46881	 12.0	 0.0	 6.6	 -6.6	 1.0	 100.0	 1	 17.0	 7.0;
	46881	 12.0	 0.0	 6.6	 -6.6	 1.0	 100.0	 1	 17.0	 7.0;
	46881	 12.0	 0.0	 6.6	 -6.6	 1.0	 100.0	 1	 17.0	 7.0;
	46881	 12.0	 0.0	 6.6	 -6.6	 1.0	 100.0	 1	 17.0	 7.0;
	46881	 12.0	 0.0	 6.6	 -6.6	 1.0	 100.0	 1	 17.0	 7.0;
	46888	 336.205	 71.7	 348.3	 -204.9	 1.0	 100.0	 1	 522.41	 150.0;
	46895	 87.875	 27.95	 120.9	 -65.0	 1.0	 100.0	 1	 165.75	 10.0;
	46895	 89.15	 28.35	 122.7	 -66.0	 1.0	 100.0	 1	 168.3	 10.0;
	46895	 89.15	 28.35	 122.7	 -66.0	 1.0	 100.0	 1	 168.3	 10.0;
	46895	 89.15	 28.35	 122.7	 -66.0	 1.0	 100.0	 1	 168.3	 10.0;
	46895	 89.15	 28.35	 122.7	 -66.0	 1.0	 100.0	 1	 168.3	 10.0;
	46896	 53.775	 14.75	 63.8	 -34.3	 1.0	 100.0	 1	 87.55	 20.0;
	46897	 128.3175	 34.85	 150.7	 -81.0	 1.0	 100.0	 1	 206.635	 50.0;
	46897	 73.28	 16.25	 70.4	 -37.9	 1.0	 100.0	 1	 96.56	 50.0;
	46899	 129.7	 26.35	 114.0	 -61.3	 1.0	 100.0	 1	 156.4	 103.0;
	46899	 129.7	 26.35	 114.0	 -61.3	 1.0	 100.0	 1	 156.4	 103.0;
	46899	 137.8	 36.7	 158.7	 -85.3	 1.0	 100.0	 1	 217.6	 58.0;
	46900	 123.2025	 25.65	 111.1	 -59.8	 1.0	 100.0	 1	 152.405	 94.0;
	46900	 123.2025	 25.65	 111.1	 -59.8	 1.0	 100.0	 1	 152.405	 94.0;
	46900	 123.2025	 25.65	 111.1	 -59.8	 1.0	 100.0	 1	 152.405	 94.0;
	46900	 87.35	 17.45	 75.6	 -40.7	 1.0	 100.0	 1	 103.7	 71.0;
	46900	 87.35	 17.45	 75.6	 -40.7	 1.0	 100.0	 1	 103.7	 71.0;
	46900	 87.35	 17.45	 75.6	 -40.7	 1.0	 100.0	 1	 103.7	 71.0;
	46901	 189.9475	 51.35	 222.3	 -119.6	 1.0	 100.0	 1	 304.895	 75.0;
	46904	 91.44	 10.0	 64.3	 -44.3	 1.0	 100.0	 1	 112.88	 70.0;
	46904	 91.44	 10.0	 64.3	 -44.3	 1.0	 100.0	 1	 112.88	 70.0;
	46905	 69.8675	 9.75	 62.5	 -43.0	 1.0	 100.0	 1	 109.735	 30.0;
	46905	 81.6525	 24.8	 107.4	 -57.8	 1.0	 100.0	 1	 147.305	 16.0;
	46909	 69.2	 14.9	 64.5	 -34.7	 1.0	 100.0	 1	 88.4	 50.0;
	46909	 69.2	 14.9	 64.5	 -34.7	 1.0	 100.0	 1	 88.4	 50.0;
	46909	 69.2	 14.9	 64.5	 -34.7	 1.0	 100.0	 1	 88.4	 50.0;
	46909	 69.2	 14.9	 64.5	 -34.7	 1.0	 100.0	 1	 88.4	 50.0;
	46911	 119.0	 6.45	 41.3	 -28.4	 1.0	 100.0	 1	 165.0	 73.0;
	46912	 49.1575	 12.0	 52.0	 -28.0	 1.0	 100.0	 1	 71.315	 27.0;
	46917	 27.5	 0.0	 25.6	 -25.6	 1.0	 100.0	 1	 51.0	 4.0;
	46919	 8.5325	 0.0	 6.2	 -6.2	 1.0	 100.0	 1	 16.065	 1.0;
	46919	 8.5325	 0.0	 6.2	 -6.2	 1.0	 100.0	 1	 16.065	 1.0;
	46919	 8.5325	 0.0	 6.2	 -6.2	 1.0	 100.0	 1	 16.065	 1.0;
	46920	 48.625	 12.2	 52.7	 -28.3	 1.0	 100.0	 1	 72.25	 25.0;
	46922	 18.875	 5.0	 21.7	 -11.7	 1.0	 100.0	 1	 29.75	 8.0;
	46922	 56.0675	 10.45	 45.3	 -24.4	 1.0	 100.0	 1	 62.135	 50.0;
	46922	 56.0675	 10.45	 45.3	 -24.4	 1.0	 100.0	 1	 62.135	 50.0;
	46922	 51.81	 11.05	 47.8	 -25.7	 1.0	 100.0	 1	 65.62	 38.0;
	46922	 51.81	 11.05	 47.8	 -25.7	 1.0	 100.0	 1	 65.62	 38.0;
	46922	 23.125	 6.45	 27.9	 -15.0	 1.0	 100.0	 1	 38.25	 8.0;
	46922	 38.85	 11.75	 50.8	 -27.3	 1.0	 100.0	 1	 69.7	 8.0;
	46922	 4.9625	 1.5	 6.5	 -3.5	 1.0	 100.0	 1	 8.925	 1.0;
	46922	 4.9625	 1.5	 6.5	 -3.5	 1.0	 100.0	 1	 8.925	 1.0;
	46922	 4.9625	 1.5	 6.5	 -3.5	 1.0	 100.0	 1	 8.925	 1.0;
	46922	 4.9625	 1.5	 6.5	 -3.5	 1.0	 100.0	 1	 8.925	 1.0;
	46922	 4.9625	 1.5	 6.5	 -3.5	 1.0	 100.0	 1	 8.925	 1.0;
	46922	 9.0	 2.85	 12.4	 -6.7	 1.0	 100.0	 1	 17.0	 1.0;
	46923	 46.081	 9.8	 46.7	 -27.1	 1.0	 100.0	 1	 69.02	 23.142;
	46924	 28.92	 0.0	 0.0	 0.0	 1.0	 100.0	 1	 42.84	 15.0;
	46924	 28.92	 0.0	 0.0	 0.0	 1.0	 100.0	 1	 42.84	 15.0;
	46926	 33.5	 5.75	 24.8	 -13.3	 1.0	 100.0	 1	 34.0	 33.0;
	46926	 33.5	 5.75	 24.8	 -13.3	 1.0	 100.0	 1	 34.0	 33.0;
	46927	 24.1725	 0.0	 7.2	 -7.2	 1.0	 100.0	 1	 30.345	 18.0;
	46927	 27.51	 0.0	 8.4	 -8.4	 1.0	 100.0	 1	 35.02	 20.0;
	46929	 6.0125	 1.15	 6.45	 -4.15	 1.0	 100.0	 1	 10.625	 1.4;
	46934	 24.448	 4.3	 21.3	 -12.7	 1.0	 100.0	 1	 32.47	 16.426;
	46934	 30.49	 5.55	 24.0	 -12.9	 1.0	 100.0	 1	 32.98	 28.0;
	46934	 30.15	 7.9	 28.5	 -12.7	 1.0	 100.0	 1	 32.3	 28.0;
	46936	 2.4475	 0.74	 3.04	 -1.56	 1.0	 100.0	 1	 3.995	 0.9;
	46936	 2.4475	 0.74	 3.04	 -1.56	 1.0	 100.0	 1	 3.995	 0.9;
	46936	 2.4475	 0.74	 3.04	 -1.56	 1.0	 100.0	 1	 3.995	 0.9;
	46936	 2.4475	 0.74	 3.04	 -1.56	 1.0	 100.0	 1	 3.995	 0.9;
	46936	 2.4475	 0.74	 3.04	 -1.56	 1.0	 100.0	 1	 3.995	 0.9;
	46937	 180.6125	 49.9	 216.0	 -116.2	 1.0	 100.0	 1	 296.225	 65.0;
	46940	 19.9375	 2.85	 18.2	 -12.5	 1.0	 100.0	 1	 31.875	 8.0;
	46941	 14.7475	 2.95	 12.8	 -6.9	 1.0	 100.0	 1	 17.595	 11.9;
	46942	 2.011	 0.55	 2.071	 -0.971	 1.0	 100.0	 1	 2.477	 1.545;
	46942	 2.011	 0.55	 2.071	 -0.971	 1.0	 100.0	 1	 2.477	 1.545;
	46942	 2.011	 0.55	 2.071	 -0.971	 1.0	 100.0	 1	 2.477	 1.545;
	46942	 2.011	 0.55	 2.071	 -0.971	 1.0	 100.0	 1	 2.477	 1.545;
	46942	 2.011	 0.55	 2.071	 -0.971	 1.0	 100.0	 1	 2.477	 1.545;
	46942	 2.011	 0.55	 2.071	 -0.971	 1.0	 100.0	 1	 2.477	 1.545;
	46942	 2.011	 0.55	 2.071	 -0.971	 1.0	 100.0	 1	 2.477	 1.545;
	46950	 407.425	 46.9	 300.8	 -207.0	 1.0	 100.0	 1	 527.85	 287.0;
	46950	 403.925	 46.9	 300.8	 -207.0	 1.0	 100.0	 1	 527.85	 280.0;
	46951	 359.6225	 78.75	 340.7	 -183.2	 1.0	 100.0	 1	 467.245	 252.0;
	46956	 169.2	 15.4	 98.8	 -68.0	 1.0	 100.0	 1	 173.4	 165.0;
	46956	 169.2	 15.4	 98.8	 -68.0	 1.0	 100.0	 1	 173.4	 165.0;
	46957	 124.45	 14.65	 94.0	 -64.7	 1.0	 100.0	 1	 164.9	 84.0;
	46957	 37.1	 3.95	 25.2	 -17.3	 1.0	 100.0	 1	 44.2	 30.0;
	46957	 39.225	 4.3	 27.6	 -19.0	 1.0	 100.0	 1	 48.45	 30.0;
	46961	 548.65	 55.7	 357.4	 -246.0	 1.0	 100.0	 1	 627.3	 470.0;
	46961	 235.6	 38.95	 168.6	 -90.7	 1.0	 100.0	 1	 240.0	 231.2;
	46963	 40.5	 0.0	 66.1	 -66.1	 1.0	 100.0	 1	 81.0	 0.0;
	46964	 33.5	 0.0	 64.4	 -64.4	 1.0	 100.0	 1	 67.0	 0.0;
	46965	 185.325	 41.4	 179.1	 -96.3	 1.0	 100.0	 1	 245.65	 125.0;
	46965	 235.075	 51.4	 222.5	 -119.7	 1.0	 100.0	 1	 305.15	 165.0;
	46966	 87.01	 17.35	 75.1	 -40.4	 1.0	 100.0	 1	 103.02	 71.0;
	46967	 89.725	 16.75	 72.5	 -39.0	 1.0	 100.0	 1	 99.45	 80.0;
	46967	 89.725	 16.75	 72.5	 -39.0	 1.0	 100.0	 1	 99.45	 80.0;
	46967	 89.725	 16.75	 72.5	 -39.0	 1.0	 100.0	 1	 99.45	 80.0;
	46968	 71.265	 14.6	 63.1	 -33.9	 1.0	 100.0	 1	 86.53	 56.0;
	46968	 71.265	 14.6	 63.1	 -33.9	 1.0	 100.0	 1	 86.53	 56.0;
	46968	 71.265	 14.6	 63.1	 -33.9	 1.0	 100.0	 1	 86.53	 56.0;
	46968	 71.265	 14.6	 63.1	 -33.9	 1.0	 100.0	 1	 86.53	 56.0;
	46968	 71.265	 14.6	 63.1	 -33.9	 1.0	 100.0	 1	 86.53	 56.0;
	46968	 71.265	 14.6	 63.1	 -33.9	 1.0	 100.0	 1	 86.53	 56.0;
	46969	 48.25	 6.8	 43.6	 -30.0	 1.0	 100.0	 1	 76.5	 20.0;
	46969	 13.125	 3.6	 15.5	 -8.3	 1.0	 100.0	 1	 21.25	 5.0;
	46969	 41.125	 6.45	 41.2	 -28.3	 1.0	 100.0	 1	 72.25	 10.0;
	46977	 44.5	 8.6	 37.2	 -20.0	 1.0	 100.0	 1	 51.0	 38.0;
	46977	 44.5	 8.6	 37.2	 -20.0	 1.0	 100.0	 1	 51.0	 38.0;
	46977	 44.5	 8.6	 37.2	 -20.0	 1.0	 100.0	 1	 51.0	 38.0;
	46979	 24.7	 0.0	 22.4	 -22.4	 1.0	 100.0	 1	 49.0	 0.4;
	46981	 31.46	 0.0	 17.1	 -17.1	 1.0	 100.0	 1	 44.2	 18.72;
	46987	 31.7	 6.3	 27.3	 -14.7	 1.0	 100.0	 1	 37.4	 26.0;
	46989	 3.8095	 0.9615	 3.456	 -1.533	 1.0	 100.0	 1	 3.919	 3.7;
	46989	 3.8095	 0.9615	 3.456	 -1.533	 1.0	 100.0	 1	 3.919	 3.7;
	46989	 3.8095	 0.9615	 3.456	 -1.533	 1.0	 100.0	 1	 3.919	 3.7;
	46991	 17.0	 3.05	 19.4	 -13.3	 1.0	 100.0	 1	 34.0	 0.0;
	46991	 17.0	 3.05	 19.4	 -13.3	 1.0	 100.0	 1	 34.0	 0.0;
	46992	 27.0	 5.0	 20.0	 -10.0	 1.0	 100.0	 1	 34.0	 20.0;
	46995	 10.15	 1.35	 8.7	 -6.0	 1.0	 100.0	 1	 15.3	 5.0;
	46995	 10.15	 1.35	 8.7	 -6.0	 1.0	 100.0	 1	 15.3	 5.0;
	46997	 19.584	 3.45	 17.1	 -10.2	 1.0	 100.0	 1	 26.01	 13.158;
	46998	 41.5	 0.0	 8.9	 -8.9	 1.0	 100.0	 1	 56.0	 27.0;
	47000	 1.5275	 0.545	 1.97	 -0.88	 1.0	 100.0	 1	 2.235	 0.82;
	47000	 1.5275	 0.545	 1.97	 -0.88	 1.0	 100.0	 1	 2.235	 0.82;
	47001	 4.4475	 0.0	 1.767	 -1.767	 1.0	 100.0	 1	 7.395	 1.5;
	47001	 4.4475	 0.0	 1.767	 -1.767	 1.0	 100.0	 1	 7.395	 1.5;
	47001	 4.4475	 0.0	 1.767	 -1.767	 1.0	 100.0	 1	 7.395	 1.5;
	47004	 6.656	 1.8	 7.35	 -3.75	 1.0	 100.0	 1	 9.562	 3.75;
	47004	 6.656	 1.8	 7.35	 -3.75	 1.0	 100.0	 1	 9.562	 3.75;
	47006	 14.35	 0.0	 10.0	 -10.0	 1.0	 100.0	 1	 18.7	 10.0;
	47010	 10.51	 1.6	 10.3	 -7.1	 1.0	 100.0	 1	 18.02	 3.0;
	75440	 492.5	 67.95	 435.9	 -300.0	 1.0	 100.0	 1	 765.0	 220.0;
	75445	 327.15	 42.15	 270.3	 -186.0	 1.0	 100.0	 1	 474.3	 180.0;
	75463	 37.575	 6.05	 31.8	 -19.7	 1.0	 100.0	 1	 50.15	 25.0;
	75463	 86.05	 9.5	 61.0	 -42.0	 1.0	 100.0	 1	 107.1	 65.0;
	75466	 56.7625	 12.4	 53.6	 -28.8	 1.0	 100.0	 1	 73.525	 40.0;
	75466	 56.7625	 12.4	 53.6	 -28.8	 1.0	 100.0	 1	 73.525	 40.0;
	75466	 57.4	 12.6	 54.5	 -29.3	 1.0	 100.0	 1	 74.8	 40.0;
	75466	 57.4	 12.6	 54.5	 -29.3	 1.0	 100.0	 1	 74.8	 40.0;
	75473	 27.9	 0.0	 15.8	 -15.8	 1.0	 100.0	 1	 40.8	 15.0;
	75473	 27.9	 0.0	 15.8	 -15.8	 1.0	 100.0	 1	 40.8	 15.0;
	75476	 22.085	 0.0	 13.2	 -13.2	 1.0	 100.0	 1	 34.17	 10.0;
	75476	 22.085	 0.0	 13.2	 -13.2	 1.0	 100.0	 1	 34.17	 10.0;
	75476	 22.085	 0.0	 13.2	 -13.2	 1.0	 100.0	 1	 34.17	 10.0;
	75476	 22.085	 0.0	 13.2	 -13.2	 1.0	 100.0	 1	 34.17	 10.0;
	75480	 19.4	 5.0	 19.2	 -9.2	 1.0	 100.0	 1	 23.8	 15.0;
	75480	 24.5	 5.0	 23.1	 -13.1	 1.0	 100.0	 1	 34.0	 15.0;
...
];

%% generator cost data
%	2	startup	shutdown	n	c(n-1)	...	c0
mpc.gencost = [
	2	 0.0	 0.0	 3	   0.000000	   0.000000	   0.000000;
	2	 0.0	 0.0	 3	   0.000000	   0.000000	   0.000000;
	2	 0.0	 0.0	 3	   0.001590	  11.230000	   0.000000;
	2	 0.0	 0.0	 3	   0.001590	  10.550000	   0.000000;
2	0.0	0.0	3	0.2	10.720000	-378.700000;
2	0.0	0.0	3	0.2	23.620000	-832.800000;
2	0.0	0.0	3	0.2	22.990000	-832.800000;
	2	 0.0	 0.0	 3	   0.026340	  14.530000	  -3.539000;
	2	 0.0	 0.0	 3	   0.026360	  14.140000	  -2.876000;
2	0.0	0.0	3	0.2	24.940000	-177.700000;
2	0.0	0.0	3	0.2	24.160000	-177.700000;
	2	 0.0	 0.0	 3	   0.026390	  14.350000	  -2.410000;
2	0.0	0.0	3	0.2	26.760000	-152.700000;
2	0.0	0.0	3	0.2	23.430000	-152.700000;
2	0.0	0.0	3	0.2	19.390000	-543.600000;
2	0.0	0.0	3	0.2	22.030000	-49.030000;
2	0.0	0.0	3	0.2	19.150000	-489.700000;
2	0.0	0.0	3	0.2	24.560000	-880.500000;
2	0.0	0.0	3	0.2	19.510000	-489.700000;
2	0.0	0.0	3	0.2	20.330000	-489.700000;
2	0.0	0.0	3	0.2	18.630000	-489.700000;
2	0.0	0.0	3	0.2	19.580000	-489.700000;
2	0.0	0.0	3	0.2	18.850000	-489.700000;
2	0.0	0.0	3	0.2	20.020000	-489.700000;
2	0.0	0.0	3	0.2	18.880000	-489.700000;
2	0.0	0.0	3	0.2	23.740000	-880.500000;
2	0.0	0.0	3	0.2	20.330000	-1.303000;
2	0.0	0.0	3	0.2	21.010000	-1.303000;
2	0.0	0.0	3	0.2	20.500000	-1.303000;
2	0.0	0.0	3	0.2	19.590000	-1.303000;
2	0.0	0.0	3	0.2	30.170000	-110.700000;
2	0.0	0.0	3	0.2	17.490000	-75.030000;
2	0.0	0.0	3	0.2	15.750000	-75.030000;
2	0.0	0.0	3	0.2	22.470000	-69.070000;
2	0.0	0.0	3	0.2	22.870000	-69.070000;
2	0.0	0.0	3	0.2	21.010000	-69.070000;
2	0.0	0.0	3	0.2	21.770000	-69.070000;
2	0.0	0.0	3	0.2	22.270000	-69.070000;
2	0.0	0.0	3	0.2	21.940000	-69.070000;
2	0.0	0.0	3	0.2	25.510000	-36.050000;
2	0.0	0.0	3	0.2	23.430000	-36.050000;
2	0.0	0.0	3	0.2	24.730000	-27.110000;
2	0.0	0.0	3	0.2	14.000000	-31.680000;
2	0.0	0.0	3	0.2	14.300000	-31.680000;
2	0.0	0.0	3	0.2	16.500000	-43.840000;
2	0.0	0.0	3	0.2	15.350000	-43.840000;
2	0.0	0.0	3	0.2	13.830000	-1.584000;
2	0.0	0.0	3	0.2	12.930000	-1.584000;
2	0.0	0.0	3	0.2	12.540000	-1.584000;
2	0.0	0.0	3	0.2	12.940000	-24.520000;
2	0.0	0.0	3	0.2	14.630000	-24.520000;
2	0.0	0.0	3	0.2	0.004124	0.000000;
2	0.0	0.0	3	0.2	0.004124	0.000000;
2	0.0	0.0	3	0.2	0.004124	0.000000;
2	0.0	0.0	3	0.2	12.990000	-9.454000;
2	0.0	0.0	3	0.2	13.720000	-9.454000;
2	0.0	0.0	3	0.2	12.020000	-9.454000;
2	0.0	0.0	3	0.2	13.480000	-9.454000;
2	0.0	0.0	3	0.2	12.260000	-9.454000;
	2	 0.0	 0.0	 3	   0.001625	   9.692000	   0.000000;
	2	 0.0	 0.0	 3	   0.009283	  20.980000	   0.000000;
	2	 0.0	 0.0	 3	   0.009284	  24.120000	   0.000000;
	2	 0.0	 0.0	 3	   0.009284	  22.000000	   0.000000;
	2	 0.0	 0.0	 3	   0.009284	  22.830000	   0.000000;
	2	 0.0	 0.0	 3	   0.009284	  20.940000	   0.000000;
2	0.0	0.0	3	0.2	24.380000	-27.780000;
	2	 0.0	 0.0	 3	   0.026350	  13.370000	  -2.392000;
2	0.0	0.0	3	0.2	22.450000	-52.800000;
2	0.0	0.0	3	0.2	20.310000	-571.200000;
2	0.0	0.0	3	0.2	20.080000	-571.200000;
	2	 0.0	 0.0	 3	   0.026350	  13.710000	  -2.668000;
2	0.0	0.0	3	0.2	20.380000	-517.300000;
2	0.0	0.0	3	0.2	19.910000	-517.300000;
2	0.0	0.0	3	0.2	19.210000	-517.300000;
2	0.0	0.0	3	0.2	23.510000	-74.110000;
2	0.0	0.0	3	0.2	24.730000	-74.110000;
2	0.0	0.0	3	0.2	22.860000	-74.110000;
	2	 0.0	 0.0	 3	   0.009375	  17.010000	  -1.262000;
2	0.0	0.0	3	0.2	20.390000	-62.730000;
2	0.0	0.0	3	0.2	23.290000	-62.730000;
2	0.0	0.0	3	0.2	14.510000	-27.060000;
2	0.0	0.0	3	0.2	15.180000	-34.890000;
2	0.0	0.0	3	0.2	21.690000	-36.070000;
2	0.0	0.0	3	0.2	21.810000	-36.070000;
2	0.0	0.0	3	0.2	20.830000	-36.070000;
2	0.0	0.0	3	0.2	20.090000	-36.070000;
2	0.0	0.0	3	0.2	21.370000	-107.000000;
2	0.0	0.0	3	0.2	22.650000	-18.230000;
2	0.0	0.0	3	0.2	21.300000	-26.600000;
2	0.0	0.0	3	0.2	16.370000	-1.799000;
2	0.0	0.0	3	0.2	16.920000	-1.799000;
2	0.0	0.0	3	0.2	16.930000	-1.799000;
2	0.0	0.0	3	0.2	33.270000	-69.830000;
2	0.0	0.0	3	0.2	13.960000	-14.700000;
2	0.0	0.0	3	0.2	19.490000	-23.120000;
2	0.0	0.0	3	0.2	20.910000	-23.120000;
2	0.0	0.0	3	0.2	20.640000	-20.200000;
2	0.0	0.0	3	0.2	19.510000	-20.200000;
2	0.0	0.0	3	0.2	14.830000	-18.130000;
2	0.0	0.0	3	0.2	13.850000	-28.890000;
2	0.0	0.0	3	0.2	11.860000	0.000000;
2	0.0	0.0	3	0.2	12.350000	0.000000;
2	0.0	0.0	3	0.2	12.660000	0.000000;
2	0.0	0.0	3	0.2	13.370000	0.000000;
2	0.0	0.0	3	0.2	13.360000	0.000000;
2	0.0	0.0	3	0.2	14.220000	-5.699000;
2	0.0	0.0	3	0.2	33.800000	-68.730000;
2	0.0	0.0	3	0.2	16.630000	-22.810000;
2	0.0	0.0	3	0.2	16.770000	-22.810000;
2	0.0	0.0	3	0.2	0.008333	0.000000;
2	0.0	0.0	3	0.2	0.008333	0.000000;
2	0.0	0.0	3	0.2	16.660000	-15.920000;
2	0.0	0.0	3	0.2	16.610000	-20.650000;
2	0.0	0.0	3	0.2	22.180000	-3.386000;
2	0.0	0.0	3	0.2	18.620000	-16.360000;
2	0.0	0.0	3	0.2	0.001931	0.000000;
2	0.0	0.0	3	0.2	0.002222	0.000000;
2	0.0	0.0	3	0.2	0.003035	0.000000;
2	0.0	0.0	3	0.2	0.003035	0.000000;
2	0.0	0.0	3	0.2	0.003035	0.000000;
2	0.0	0.0	3	0.2	0.003035	0.000000;
2	0.0	0.0	3	0.2	0.003035	0.000000;
	2	 0.0	 0.0	 3	   0.006303	  26.010000	   0.000000;
2	0.0	0.0	3	0.2	32.220000	-31.600000;
2	0.0	0.0	3	0.2	16.450000	-5.882000;
2	0.0	0.0	3	0.2	0.008834	0.000000;
2	0.0	0.0	3	0.2	0.008834	0.000000;
2	0.0	0.0	3	0.2	0.008834	0.000000;
2	0.0	0.0	3	0.2	0.008834	0.000000;
2	0.0	0.0	3	0.2	0.008834	0.000000;
2	0.0	0.0	3	0.2	0.008834	0.000000;
2	0.0	0.0	3	0.2	0.008834	0.000000;
2	0.0	0.0	3	0.2	13.040000	-287.200000;
2	0.0	0.0	3	0.2	10.950000	-282.500000;
2	0.0	0.0	3	0.2	11.470000	-272.600000;
2	0.0	0.0	3	0.2	15.230000	-259.700000;
2	0.0	0.0	3	0.2	13.580000	-259.700000;
2	0.0	0.0	3	0.2	12.800000	-111.700000;
2	0.0	0.0	3	0.2	17.810000	-37.220000;
2	0.0	0.0	3	0.2	17.780000	-41.830000;
2	0.0	0.0	3	0.2	12.010000	-529.500000;
2	0.0	0.0	3	0.2	13.580000	-279.100000;
2	0.0	0.0	3	0.2	0.000123	0.000000;
2	0.0	0.0	3	0.2	0.000149	0.000000;
2	0.0	0.0	3	0.2	11.870000	-170.300000;
2	0.0	0.0	3	0.2	11.970000	-227.100000;
2	0.0	0.0	3	0.2	21.820000	-56.440000;
2	0.0	0.0	3	0.2	22.150000	-59.220000;
2	0.0	0.0	3	0.2	21.200000	-59.220000;
2	0.0	0.0	3	0.2	22.350000	-59.220000;
2	0.0	0.0	3	0.2	19.720000	-38.020000;
2	0.0	0.0	3	0.2	21.560000	-38.020000;
2	0.0	0.0	3	0.2	20.540000	-38.020000;
2	0.0	0.0	3	0.2	22.100000	-38.020000;
2	0.0	0.0	3	0.2	22.690000	-38.020000;
2	0.0	0.0	3	0.2	19.690000	-38.020000;
2	0.0	0.0	3	0.2	14.090000	-39.090000;
2	0.0	0.0	3	0.2	34.770000	-18.940000;
2	0.0	0.0	3	0.2	19.810000	-12.080000;
2	0.0	0.0	3	0.2	17.520000	-53.160000;
2	0.0	0.0	3	0.2	18.110000	-53.160000;
2	0.0	0.0	3	0.2	17.550000	-53.160000;
2	0.0	0.0	3	0.2	13.410000	-2.122000;
2	0.0	0.0	3	0.2	16.370000	-65.000000;
2	0.0	0.0	3	0.2	16.200000	-35.880000;
2	0.0	0.0	3	0.2	0.023870	0.000000;
2	0.0	0.0	3	0.2	0.023870	0.000000;
2	0.0	0.0	3	0.2	0.023870	0.000000;
2	0.0	0.0	3	0.2	17.160000	0.000000;
2	0.0	0.0	3	0.2	18.290000	0.000000;
2	0.0	0.0	3	0.2	18.800000	-19.870000;
2	0.0	0.0	3	0.2	16.300000	-2.803000;
2	0.0	0.0	3	0.2	17.210000	-2.803000;
2	0.0	0.0	3	0.2	16.800000	-10.500000;
2	0.0	0.0	3	0.2	16.170000	-113.100000;
2	0.0	0.0	3	0.2	0.006192	0.000000;
2	0.0	0.0	3	0.2	0.006192	0.000000;
2	0.0	0.0	3	0.2	31.020000	-1.882000;
2	0.0	0.0	3	0.2	31.990000	-1.882000;
2	0.0	0.0	3	0.2	28.820000	-1.882000;
2	0.0	0.0	3	0.2	15.000000	-3.148000;
2	0.0	0.0	3	0.2	14.040000	-3.148000;
2	0.0	0.0	3	0.2	13.560000	-15.490000;
2	0.0	0.0	3	0.2	18.120000	-2.893000;
	2	 0.0	 0.0	 3	   0.001586	  10.120000	   0.000000;
2	0.0	0.0	3	0.2	12.340000	-212.500000;
2	0.0	0.0	3	0.2	23.300000	-79.380000;
2	0.0	0.0	3	0.2	24.750000	-72.420000;
2	0.0	0.0	3	0.2	20.570000	-24.300000;
2	0.0	0.0	3	0.2	21.690000	-24.300000;
2	0.0	0.0	3	0.2	20.820000	-24.860000;
2	0.0	0.0	3	0.2	21.760000	-24.860000;
2	0.0	0.0	3	0.2	16.750000	-50.990000;
2	0.0	0.0	3	0.2	14.540000	-50.990000;
2	0.0	0.0	3	0.2	16.200000	-31.680000;
2	0.0	0.0	3	0.2	14.400000	-31.680000;
2	0.0	0.0	3	0.2	15.000000	-31.680000;
2	0.0	0.0	3	0.2	14.190000	-31.680000;
2	0.0	0.0	3	0.2	15.310000	-24.520000;
2	0.0	0.0	3	0.2	13.830000	-39.430000;
...
];

%% storage data
%	bus	energy	energy_rating	charge_rating	discharge_rating	thermal_rating	qmin	qmax	r	x	standby_loss	status
mpc.storage = [
	75926	0.0	0.0	1.00	939.4740	469.7370	338.2106	0.9	0.85	1000	-1000	1000	0.1	0.01	0	0	1;
	48045	0.0	0.0	1.00	621.7500	310.8750	223.8300	0.9	0.85	1000	-1000	1000	0.1	0.01	0	0	1;
	76003	0.0	0.0	1.00	602.7180	301.3590	216.9785	0.9	0.85	1000	-1000	1000	0.1	0.01	0	0	1;
	76048	0.0	0.0	1.00	364.3440	182.1720	131.1638	0.9	0.85	1000	-1000	1000	0.1	0.01	0	0	1;
	49423	0.0	0.0	1.00	319.5000	159.7500	115.0200	0.9	0.85	1000	-1000	1000	0.1	0.01	0	0	1;
	47874	0.0	0.0	1.00	290.7000	145.3500	104.6520	0.9	0.85	1000	-1000	1000	0.1	0.01	0	0	1;
	48552	0.0	0.0	1.00	284.4000	142.2000	102.3840	0.9	0.85	1000	-1000	1000	0.1	0.01	0	0	1;
	75977	0.0	0.0	1.00	270.0660	135.0330	97.2238	0.9	0.85	1000	-1000	1000	0.1	0.01	0	0	1;
	76223	0.0	0.0	1.00	245.4420	122.7210	88.3591	0.9	0.85	1000	-1000	1000	0.1	0.01	0	0	1;
	76302	0.0	0.0	1.00	235.5240	117.7620	84.7886	0.9	0.85	1000	-1000	1000	0.1	0.01	0	0	1;
	47174	0.0	0.0	1.00	215.4000	107.7000	77.5440	0.9	0.85	1000	-1000	1000	0.1	0.01	0	0	1;
	47988	0.0	0.0	1.00	208.8480	104.4240	75.1853	0.9	0.85	1000	-1000	1000	0.1	0.01	0	0	1;
	76050	0.0	0.0	1.00	184.1100	92.0550	66.2796	0.9	0.85	1000	-1000	1000	0.1	0.01	0	0	1;
	76098	0.0	0.0	1.00	178.7520	89.3760	64.3507	0.9	0.85	1000	-1000	1000	0.1	0.01	0	0	1;
	76151	0.0	0.0	1.00	177.0420	88.5210	63.7351	0.9	0.85	1000	-1000	1000	0.1	0.01	0	0	1;
	47234	0.0	0.0	1.00	173.7000	86.8500	62.5320	0.9	0.85	1000	-1000	1000	0.1	0.01	0	0	1;
	76066	0.0	0.0	1.00	170.2020	85.1010	61.2727	0.9	0.85	1000	-1000	1000	0.1	0.01	0	0	1;
	48673	0.0	0.0	1.00	161.7660	80.8830	58.2358	0.9	0.85	1000	-1000	1000	0.1	0.01	0	0	1;
	49578	0.0	0.0	1.00	161.5500	80.7750	58.1580	0.9	0.85	1000	-1000	1000	0.1	0.01	0	0	1;
	76398	0.0	0.0	1.00	159.8280	79.9140	57.5381	0.9	0.85	1000	-1000	1000	0.1	0.01	0	0	1;
	49142	0.0	0.0	1.00	157.5000	78.7500	56.7000	0.9	0.85	1000	-1000	1000	0.1	0.01	0	0	1;
	47875	0.0	0.0	1.00	155.1540	77.5770	55.8554	0.9	0.85	1000	-1000	1000	0.1	0.01	0	0	1;
	49317	0.0	0.0	1.00	154.2420	77.1210	55.5271	0.9	0.85	1000	-1000	1000	0.1	0.01	0	0	1;
	76220	0.0	0.0	1.00	147.5160	73.7580	53.1058	0.9	0.85	1000	-1000	1000	0.1	0.01	0	0	1;
	76080	0.0	0.0	1.00	146.2620	73.1310	52.6543	0.9	0.85	1000	-1000	1000	0.1	0.01	0	0	1;
	47885	0.0	0.0	1.00	119.9280	59.9640	43.1741	0.9	0.85	1000	-1000	1000	0.1	0.01	0	0	1;
	48541	0.0	0.0	1.00	119.0160	59.5080	42.8458	0.9	0.85	1000	-1000	1000	0.1	0.01	0	0	1;
	76083	0.0	0.0	1.00	112.1760	56.0880	40.3834	0.9	0.85	1000	-1000	1000	0.1	0.01	0	0	1;
	47972	0.0	0.0	1.00	111.6060	55.8030	40.1782	0.9	0.85	1000	-1000	1000	0.1	0.01	0	0	1;
	76045	0.0	0.0	1.00	110.4660	55.2330	39.7678	0.9	0.85	1000	-1000	1000	0.1	0.01	0	0	1;
	76735	0.0	0.0	1.00	107.7300	53.8650	38.7828	0.9	0.85	1000	-1000	1000	0.1	0.01	0	0	1;
	76183	0.0	0.0	1.00	104.5380	52.2690	37.6337	0.9	0.85	1000	-1000	1000	0.1	0.01	0	0	1;
	47727	0.0	0.0	1.00	102.6000	51.3000	36.9360	0.9	0.85	1000	-1000	1000	0.1	0.01	0	0	1;
	47855	0.0	0.0	1.00	97.8120	48.9060	35.2123	0.9	0.85	1000	-1000	1000	0.1	0.01	0	0	1;
	76655	0.0	0.0	1.00	90.8580	45.4290	32.7089	0.9	0.85	1000	-1000	1000	0.1	0.01	0	0	1;
	47964	0.0	0.0	1.00	90.4020	45.2010	32.5447	0.9	0.85	1000	-1000	1000	0.1	0.01	0	0	1;
	76304	0.0	0.0	1.00	85.9560	42.9780	30.9442	0.9	0.85	1000	-1000	1000	0.1	0.01	0	0	1;
	48194	0.0	0.0	1.00	83.9040	41.9520	30.2054	0.9	0.85	1000	-1000	1000	0.1	0.01	0	0	1;
	76028	0.0	0.0	1.00	82.9920	41.4960	29.8771	0.9	0.85	1000	-1000	1000	0.1	0.01	0	0	1;
	76078	0.0	0.0	1.00	82.1940	41.0970	29.5898	0.9	0.85	1000	-1000	1000	0.1	0.01	0	0	1;
	76193	0.0	0.0	1.00	82.1940	41.0970	29.5898	0.9	0.85	1000	-1000	1000	0.1	0.01	0	0	1;
	48731	0.0	0.0	1.00	81.1680	40.5840	29.2205	0.9	0.85	1000	-1000	1000	0.1	0.01	0	0	1;
	76342	0.0	0.0	1.00	79.8000	39.9000	28.7280	0.9	0.85	1000	-1000	1000	0.1	0.01	0	0	1;
	48558	0.0	0.0	1.00	79.5720	39.7860	28.6459	0.9	0.85	1000	-1000	1000	0.1	0.01	0	0	1;
	76206	0.0	0.0	1.00	79.4580	39.7290	28.6049	0.9	0.85	1000	-1000	1000	0.1	0.01	0	0	1;
	76213	0.0	0.0	1.00	79.3440	39.6720	28.5638	0.9	0.85	1000	-1000	1000	0.1	0.01	0	0	1;
	76674	0.0	0.0	1.00	76.8360	38.4180	27.6610	0.9	0.85	1000	-1000	1000	0.1	0.01	0	0	1;
	76043	0.0	0.0	1.00	76.3800	38.1900	27.4968	0.9	0.85	1000	-1000	1000	0.1	0.01	0	0	1;
	76076	0.0	0.0	1.00	75.9240	37.9620	27.3326	0.9	0.85	1000	-1000	1000	0.1	0.01	0	0	1;
	76198	0.0	0.0	1.00	73.4160	36.7080	26.4298	0.9	0.85	1000	-1000	1000	0.1	0.01	0	0	1;
	75877	0.0	0.0	1.00	73.0740	36.5370	26.3066	0.9	0.85	1000	-1000	1000	0.1	0.01	0	0	1;
	76489	0.0	0.0	1.00	72.2760	36.1380	26.0194	0.9	0.85	1000	-1000	1000	0.1	0.01	0	0	1;
	76745	0.0	0.0	1.00	71.3640	35.6820	25.6910	0.9	0.85	1000	-1000	1000	0.1	0.01	0	0	1;
	75950	0.0	0.0	1.00	69.8820	34.9410	25.1575	0.9	0.85	1000	-1000	1000	0.1	0.01	0	0	1;
	76308	0.0	0.0	1.00	69.1980	34.5990	24.9113	0.9	0.85	1000	-1000	1000	0.1	0.01	0	0	1;
	76096	0.0	0.0	1.00	69.0840	34.5420	24.8702	0.9	0.85	1000	-1000	1000	0.1	0.01	0	0	1;
	75941	0.0	0.0	1.00	68.5140	34.2570	24.6650	0.9	0.85	1000	-1000	1000	0.1	0.01	0	0	1;
	76702	0.0	0.0	1.00	67.7160	33.8580	24.3778	0.9	0.85	1000	-1000	1000	0.1	0.01	0	0	1;
	75970	0.0	0.0	1.00	66.6900	33.3450	24.0084	0.9	0.85	1000	-1000	1000	0.1	0.01	0	0	1;
	75968	0.0	0.0	1.00	66.3480	33.1740	23.8853	0.9	0.85	1000	-1000	1000	0.1	0.01	0	0	1;
	76074	0.0	0.0	1.00	64.2960	32.1480	23.1466	0.9	0.85	1000	-1000	1000	0.1	0.01	0	0	1;
	76669	0.0	0.0	1.00	63.6120	31.8060	22.9003	0.9	0.85	1000	-1000	1000	0.1	0.01	0	0	1;
	48137	0.0	0.0	1.00	62.8140	31.4070	22.6130	0.9	0.85	1000	-1000	1000	0.1	0.01	0	0	1;
	76652	0.0	0.0	1.00	62.1300	31.0650	22.3668	0.9	0.85	1000	-1000	1000	0.1	0.01	0	0	1;
	75939	0.0	0.0	1.00	60.7620	30.3810	21.8743	0.9	0.85	1000	-1000	1000	0.1	0.01	0	0	1;
	75948	0.0	0.0	1.00	60.4200	30.2100	21.7512	0.9	0.85	1000	-1000	1000	0.1	0.01	0	0	1;
	76756	0.0	0.0	1.00	60.1920	30.0960	21.6691	0.9	0.85	1000	-1000	1000	0.1	0.01	0	0	1;
	76128	0.0	0.0	1.00	58.9380	29.4690	21.2177	0.9	0.85	1000	-1000	1000	0.1	0.01	0	0	1;
	76199	0.0	0.0	1.00	58.9380	29.4690	21.2177	0.9	0.85	1000	-1000	1000	0.1	0.01	0	0	1;
	75890	0.0	0.0	1.00	58.5960	29.2980	21.0946	0.9	0.85	1000	-1000	1000	0.1	0.01	0	0	1;
	76056	0.0	0.0	1.00	58.2540	29.1270	20.9714	0.9	0.85	1000	-1000	1000	0.1	0.01	0	0	1;
	76118	0.0	0.0	1.00	58.1400	29.0700	20.9304	0.9	0.85	1000	-1000	1000	0.1	0.01	0	0	1;
	75945	0.0	0.0	1.00	57.6840	28.8420	20.7662	0.9	0.85	1000	-1000	1000	0.1	0.01	0	0	1;
	76741	0.0	0.0	1.00	57.5700	28.7850	20.7252	0.9	0.85	1000	-1000	1000	0.1	0.01	0	0	1;
	75959	0.0	0.0	1.00	57.3420	28.6710	20.6431	0.9	0.85	1000	-1000	1000	0.1	0.01	0	0	1;
	75798	0.0	0.0	1.00	56.6580	28.3290	20.3969	0.9	0.85	1000	-1000	1000	0.1	0.01	0	0	1;
	49078	0.0	0.0	1.00	56.0880	28.0440	20.1917	0.9	0.85	1000	-1000	1000	0.1	0.01	0	0	1;
	76689	0.0	0.0	1.00	55.7460	27.8730	20.0686	0.9	0.85	1000	-1000	1000	0.1	0.01	0	0	1;
	75933	0.0	0.0	1.00	55.5180	27.7590	19.9865	0.9	0.85	1000	-1000	1000	0.1	0.01	0	0	1;
	76706	0.0	0.0	1.00	53.9220	26.9610	19.4119	0.9	0.85	1000	-1000	1000	0.1	0.01	0	0	1;
	75704	0.0	0.0	1.00	53.4660	26.7330	19.2478	0.9	0.85	1000	-1000	1000	0.1	0.01	0	0	1;
	76744	0.0	0.0	1.00	53.3520	26.6760	19.2067	0.9	0.85	1000	-1000	1000	0.1	0.01	0	0	1;
	75891	0.0	0.0	1.00	53.2380	26.6190	19.1657	0.9	0.85	1000	-1000	1000	0.1	0.01	0	0	1;
	75650	0.0	0.0	1.00	52.8960	26.4480	19.0426	0.9	0.85	1000	-1000	1000	0.1	0.01	0	0	1;
	76101	0.0	0.0	1.00	52.6680	26.3340	18.9605	0.9	0.85	1000	-1000	1000	0.1	0.01	0	0	1;
	75858	0.0	0.0	1.00	51.9840	25.9920	18.7142	0.9	0.85	1000	-1000	1000	0.1	0.01	0	0	1;
	76750	0.0	0.0	1.00	51.9840	25.9920	18.7142	0.9	0.85	1000	-1000	1000	0.1	0.01	0	0	1;
	47717	0.0	0.0	1.00	51.3000	25.6500	18.4680	0.9	0.85	1000	-1000	1000	0.1	0.01	0	0	1;
	75840	0.0	0.0	1.00	51.3000	25.6500	18.4680	0.9	0.85	1000	-1000	1000	0.1	0.01	0	0	1;
	76270	0.0	0.0	1.00	51.3000	25.6500	18.4680	0.9	0.85	1000	-1000	1000	0.1	0.01	0	0	1;
	76296	0.0	0.0	1.00	51.3000	25.6500	18.4680	0.9	0.85	1000	-1000	1000	0.1	0.01	0	0	1;
	76371	0.0	0.0	1.00	50.8440	25.4220	18.3038	0.9	0.85	1000	-1000	1000	0.1	0.01	0	0	1;
	76494	0.0	0.0	1.00	50.8440	25.4220	18.3038	0.9	0.85	1000	-1000	1000	0.1	0.01	0	0	1;
	76743	0.0	0.0	1.00	50.2950	25.1475	18.1062	0.9	0.85	1000	-1000	1000	0.1	0.01	0	0	1;
	75995	0.0	0.0	1.00	49.7040	24.8520	17.8934	0.9	0.85	1000	-1000	1000	0.1	0.01	0	0	1;
	76522	0.0	0.0	1.00	49.7040	24.8520	17.8934	0.9	0.85	1000	-1000	1000	0.1	0.01	0	0	1;
	75935	0.0	0.0	1.00	49.4760	24.7380	17.8114	0.9	0.85	1000	-1000	1000	0.1	0.01	0	0	1;
	76333	0.0	0.0	1.00	49.1340	24.5670	17.6882	0.9	0.85	1000	-1000	1000	0.1	0.01	0	0	1;
	49043	0.0	0.0	1.00	48.7920	24.3960	17.5651	0.9	0.85	1000	-1000	1000	0.1	0.01	0	0	1;
	76316	0.0	0.0	1.00	48.7920	24.3960	17.5651	0.9	0.85	1000	-1000	1000	0.1	0.01	0	0	1;
	76279	0.0	0.0	1.00	47.3100	23.6550	17.0316	0.9	0.85	1000	-1000	1000	0.1	0.01	0	0	1;
	76005	0.0	0.0	1.00	47.1960	23.5980	16.9906	0.9	0.85	1000	-1000	1000	0.1	0.01	0	0	1;
	48231	0.0	0.0	1.00	47.0820	23.5410	16.9495	0.9	0.85	1000	-1000	1000	0.1	0.01	0	0	1;
	49314	0.0	0.0	1.00	46.8540	23.4270	16.8674	0.9	0.85	1000	-1000	1000	0.1	0.01	0	0	1;
	76747	0.0	0.0	1.00	46.8540	23.4270	16.8674	0.9	0.85	1000	-1000	1000	0.1	0.01	0	0	1;
	76091	0.0	0.0	1.00	46.3980	23.1990	16.7033	0.9	0.85	1000	-1000	1000	0.1	0.01	0	0	1;
	76237	0.0	0.0	1.00	46.3980	23.1990	16.7033	0.9	0.85	1000	-1000	1000	0.1	0.01	0	0	1;
	48027	0.0	0.0	1.00	46.2840	23.1420	16.6622	0.9	0.85	1000	-1000	1000	0.1	0.01	0	0	1;
	75947	0.0	0.0	1.00	46.0560	23.0280	16.5802	0.9	0.85	1000	-1000	1000	0.1	0.01	0	0	1;
	76688	0.0	0.0	1.00	46.0560	23.0280	16.5802	0.9	0.85	1000	-1000	1000	0.1	0.01	0	0	1;
	75882	0.0	0.0	1.00	45.7140	22.8570	16.4570	0.9	0.85	1000	-1000	1000	0.1	0.01	0	0	1;
	76284	0.0	0.0	1.00	45.7140	22.8570	16.4570	0.9	0.85	1000	-1000	1000	0.1	0.01	0	0	1;
	76130	0.0	0.0	1.00	45.6000	22.8000	16.4160	0.9	0.85	1000	-1000	1000	0.1	0.01	0	0	1;
	48047	0.0	0.0	1.00	45.0300	22.5150	16.2108	0.9	0.85	1000	-1000	1000	0.1	0.01	0	0	1;
	49933	0.0	0.0	1.00	44.6880	22.3440	16.0877	0.9	0.85	1000	-1000	1000	0.1	0.01	0	0	1;
	76509	0.0	0.0	1.00	44.6880	22.3440	16.0877	0.9	0.85	1000	-1000	1000	0.1	0.01	0	0	1;
	47884	0.0	0.0	1.00	44.5740	22.2870	16.0466	0.9	0.85	1000	-1000	1000	0.1	0.01	0	0	1;
	48156	0.0	0.0	1.00	44.5740	22.2870	16.0466	0.9	0.85	1000	-1000	1000	0.1	0.01	0	0	1;
	48028	0.0	0.0	1.00	44.1180	22.0590	15.8825	0.9	0.85	1000	-1000	1000	0.1	0.01	0	0	1;
	76194	0.0	0.0	1.00	43.8900	21.9450	15.8004	0.9	0.85	1000	-1000	1000	0.1	0.01	0	0	1;
	76400	0.0	0.0	1.00	43.8900	21.9450	15.8004	0.9	0.85	1000	-1000	1000	0.1	0.01	0	0	1;
	48479	0.0	0.0	1.00	43.7760	21.8880	15.7594	0.9	0.85	1000	-1000	1000	0.1	0.01	0	0	1;
	76116	0.0	0.0	1.00	43.7760	21.8880	15.7594	0.9	0.85	1000	-1000	1000	0.1	0.01	0	0	1;
	48461	0.0	0.0	1.00	43.6620	21.8310	15.7183	0.9	0.85	1000	-1000	1000	0.1	0.01	0	0	1;
	47824	0.0	0.0	1.00	43.4340	21.7170	15.6362	0.9	0.85	1000	-1000	1000	0.1	0.01	0	0	1;
	48222	0.0	0.0	1.00	43.4340	21.7170	15.6362	0.9	0.85	1000	-1000	1000	0.1	0.01	0	0	1;
	49483	0.0	0.0	1.00	42.0660	21.0330	15.1438	0.9	0.85	1000	-1000	1000	0.1	0.01	0	0	1;
	76641	0.0	0.0	1.00	42.0660	21.0330	15.1438	0.9	0.85	1000	-1000	1000	0.1	0.01	0	0	1;
	49091	0.0	0.0	1.00	41.9520	20.9760	15.1027	0.9	0.85	1000	-1000	1000	0.1	0.01	0	0	1;
	75681	0.0	0.0	1.00	41.9520	20.9760	15.1027	0.9	0.85	1000	-1000	1000	0.1	0.01	0	0	1;
	76013	0.0	0.0	1.00	41.7240	20.8620	15.0206	0.9	0.85	1000	-1000	1000	0.1	0.01	0	0	1;
	75754	0.0	0.0	1.00	41.6100	20.8050	14.9796	0.9	0.85	1000	-1000	1000	0.1	0.01	0	0	1;
	76635	0.0	0.0	1.00	41.6100	20.8050	14.9796	0.9	0.85	1000	-1000	1000	0.1	0.01	0	0	1;
	76647	0.0	0.0	1.00	41.6100	20.8050	14.9796	0.9	0.85	1000	-1000	1000	0.1	0.01	0	0	1;
	76209	0.0	0.0	1.00	41.4960	20.7480	14.9386	0.9	0.85	1000	-1000	1000	0.1	0.01	0	0	1;
	48039	0.0	0.0	1.00	41.2680	20.6340	14.8565	0.9	0.85	1000	-1000	1000	0.1	0.01	0	0	1;
	76112	0.0	0.0	1.00	41.1540	20.5770	14.8154	0.9	0.85	1000	-1000	1000	0.1	0.01	0	0	1;
	76751	0.0	0.0	1.00	41.0400	20.5200	14.7744	0.9	0.85	1000	-1000	1000	0.1	0.01	0	0	1;
	49370	0.0	0.0	1.00	40.8120	20.4060	14.6923	0.9	0.85	1000	-1000	1000	0.1	0.01	0	0	1;
	48551	0.0	0.0	1.00	40.5840	20.2920	14.6102	0.9	0.85	1000	-1000	1000	0.1	0.01	0	0	1;
	76126	0.0	0.0	1.00	40.5840	20.2920	14.6102	0.9	0.85	1000	-1000	1000	0.1	0.01	0	0	1;
	76236	0.0	0.0	1.00	40.2420	20.1210	14.4871	0.9	0.85	1000	-1000	1000	0.1	0.01	0	0	1;
	48025	0.0	0.0	1.00	39.9000	19.9500	14.3640	0.9	0.85	1000	-1000	1000	0.1	0.01	0	0	1;
	76425	0.0	0.0	1.00	39.7860	19.8930	14.3230	0.9	0.85	1000	-1000	1000	0.1	0.01	0	0	1;
	47237	0.0	0.0	1.00	39.7500	19.8750	14.3100	0.9	0.85	1000	-1000	1000	0.1	0.01	0	0	1;
	75834	0.0	0.0	1.00	39.3300	19.6650	14.1588	0.9	0.85	1000	-1000	1000	0.1	0.01	0	0	1;
	48264	0.0	0.0	1.00	39.3000	19.6500	14.1480	0.9	0.85	1000	-1000	1000	0.1	0.01	0	0	1;
	48591	0.0	0.0	1.00	39.2160	19.6080	14.1178	0.9	0.85	1000	-1000	1000	0.1	0.01	0	0	1;
	75857	0.0	0.0	1.00	39.2160	19.6080	14.1178	0.9	0.85	1000	-1000	1000	0.1	0.01	0	0	1;
	47724	0.0	0.0	1.00	38.9880	19.4940	14.0357	0.9	0.85	1000	-1000	1000	0.1	0.01	0	0	1;
	50133	0.0	0.0	1.00	38.9880	19.4940	14.0357	0.9	0.85	1000	-1000	1000	0.1	0.01	0	0	1;
	75946	0.0	0.0	1.00	38.7600	19.3800	13.9536	0.9	0.85	1000	-1000	1000	0.1	0.01	0	0	1;
	75930	0.0	0.0	1.00	38.6460	19.3230	13.9126	0.9	0.85	1000	-1000	1000	0.1	0.01	0	0	1;
	75963	0.0	0.0	1.00	38.6460	19.3230	13.9126	0.9	0.85	1000	-1000	1000	0.1	0.01	0	0	1;
	76079	0.0	0.0	1.00	38.6460	19.3230	13.9126	0.9	0.85	1000	-1000	1000	0.1	0.01	0	0	1;
	76463	0.0	0.0	1.00	38.5320	19.2660	13.8715	0.9	0.85	1000	-1000	1000	0.1	0.01	0	0	1;
	47129	0.0	0.0	1.00	38.0760	19.0380	13.7074	0.9	0.85	1000	-1000	1000	0.1	0.01	0	0	1;
	76532	0.0	0.0	1.00	38.0760	19.0380	13.7074	0.9	0.85	1000	-1000	1000	0.1	0.01	0	0	1;
	47821	0.0	0.0	1.00	37.9620	18.9810	13.6663	0.9	0.85	1000	-1000	1000	0.1	0.01	0	0	1;
	76294	0.0	0.0	1.00	37.8480	18.9240	13.6253	0.9	0.85	1000	-1000	1000	0.1	0.01	0	0	1;
	47859	0.0	0.0	1.00	37.7340	18.8670	13.5842	0.9	0.85	1000	-1000	1000	0.1	0.01	0	0	1;
	76421	0.0	0.0	1.00	37.5060	18.7530	13.5022	0.9	0.85	1000	-1000	1000	0.1	0.01	0	0	1;
	48652	0.0	0.0	1.00	37.3920	18.6960	13.4611	0.9	0.85	1000	-1000	1000	0.1	0.01	0	0	1;
	47231	0.0	0.0	1.00	37.2780	18.6390	13.4201	0.9	0.85	1000	-1000	1000	0.1	0.01	0	0	1;
	48151	0.0	0.0	1.00	37.2780	18.6390	13.4201	0.9	0.85	1000	-1000	1000	0.1	0.01	0	0	1;
	50124	0.0	0.0	1.00	37.2780	18.6390	13.4201	0.9	0.85	1000	-1000	1000	0.1	0.01	0	0	1;
	48166	0.0	0.0	1.00	37.1640	18.5820	13.3790	0.9	0.85	1000	-1000	1000	0.1	0.01	0	0	1;
	48720	0.0	0.0	1.00	37.1640	18.5820	13.3790	0.9	0.85	1000	-1000	1000	0.1	0.01	0	0	1;
	76023	0.0	0.0	1.00	37.1640	18.5820	13.3790	0.9	0.85	1000	-1000	1000	0.1	0.01	0	0	1;
	76208	0.0	0.0	1.00	37.1640	18.5820	13.3790	0.9	0.85	1000	-1000	1000	0.1	0.01	0	0	1;
	47803	0.0	0.0	1.00	36.9360	18.4680	13.2970	0.9	0.85	1000	-1000	1000	0.1	0.01	0	0	1;
	75863	0.0	0.0	1.00	36.9360	18.4680	13.2970	0.9	0.85	1000	-1000	1000	0.1	0.01	0	0	1;
	75958	0.0	0.0	1.00	36.9360	18.4680	13.2970	0.9	0.85	1000	-1000	1000	0.1	0.01	0	0	1;
	47638	0.0	0.0	1.00	36.8220	18.4110	13.2559	0.9	0.85	1000	-1000	1000	0.1	0.01	0	0	1;
	47745	0.0	0.0	1.00	36.7080	18.3540	13.2149	0.9	0.85	1000	-1000	1000	0.1	0.01	0	0	1;
	76287	0.0	0.0	1.00	36.5940	18.2970	13.1738	0.9	0.85	1000	-1000	1000	0.1	0.01	0	0	1;
	76754	0.0	0.0	1.00	36.5940	18.2970	13.1738	0.9	0.85	1000	-1000	1000	0.1	0.01	0	0	1;
	76432	0.0	0.0	1.00	36.4800	18.2400	13.1328	0.9	0.85	1000	-1000	1000	0.1	0.01	0	0	1;
	76366	0.0	0.0	1.00	36.2520	18.1260	13.0507	0.9	0.85	1000	-1000	1000	0.1	0.01	0	0	1;
	47428	0.0	0.0	1.00	35.8500	17.9250	12.9060	0.9	0.85	1000	-1000	1000	0.1	0.01	0	0	1;
	76283	0.0	0.0	1.00	35.7960	17.8980	12.8866	0.9	0.85	1000	-1000	1000	0.1	0.01	0	0	1;
	47713	0.0	0.0	1.00	35.6820	17.8410	12.8455	0.9	0.85	1000	-1000	1000	0.1	0.01	0	0	1;
	48193	0.0	0.0	1.00	35.6820	17.8410	12.8455	0.9	0.85	1000	-1000	1000	0.1	0.01	0	0	1;
	76249	0.0	0.0	1.00	35.6820	17.8410	12.8455	0.9	0.85	1000	-1000	1000	0.1	0.01	0	0	1;
	47751	0.0	0.0	1.00	35.5680	17.7840	12.8045	0.9	0.85	1000	-1000	1000	0.1	0.01	0	0	1;
	48737	0.0	0.0	1.00	35.5680	17.7840	12.8045	0.9	0.85	1000	-1000	1000	0.1	0.01	0	0	1;
	76032	0.0	0.0	1.00	35.5680	17.7840	12.8045	0.9	0.85	1000	-1000	1000	0.1	0.01	0	0	1;
	50103	0.0	0.0	1.00	35.3400	17.6700	12.7224	0.9	0.85	1000	-1000	1000	0.1	0.01	0	0	1;
	75917	0.0	0.0	1.00	35.3400	17.6700	12.7224	0.9	0.85	1000	-1000	1000	0.1	0.01	0	0	1;
	76250	0.0	0.0	1.00	35.3400	17.6700	12.7224	0.9	0.85	1000	-1000	1000	0.1	0.01	0	0	1;
	76619	0.0	0.0	1.00	35.1120	17.5560	12.6403	0.9	0.85	1000	-1000	1000	0.1	0.01	0	0	1;
	76634	0.0	0.0	1.00	35.1120	17.5560	12.6403	0.9	0.85	1000	-1000	1000	0.1	0.01	0	0	1;
	76235	0.0	0.0	1.00	34.9980	17.4990	12.5993	0.9	0.85	1000	-1000	1000	0.1	0.01	0	0	1;
	49533	0.0	0.0	1.00	34.8840	17.4420	12.5582	0.9	0.85	1000	-1000	1000	0.1	0.01	0	0	1;
	47322	0.0	0.0	1.00	34.8000	17.4000	12.5280	0.9	0.85	1000	-1000	1000	0.1	0.01	0	0	1;
	76665	0.0	0.0	1.00	34.7700	17.3850	12.5172	0.9	0.85	1000	-1000	1000	0.1	0.01	0	0	1;
	75940	0.0	0.0	1.00	34.6560	17.3280	12.4762	0.9	0.85	1000	-1000	1000	0.1	0.01	0	0	1;
	48650	0.0	0.0	1.00	34.5420	17.2710	12.4351	0.9	0.85	1000	-1000	1000	0.1	0.01	0	0	1;
	75906	0.0	0.0	1.00	34.5420	17.2710	12.4351	0.9	0.85	1000	-1000	1000	0.1	0.01	0	0	1;
	76124	0.0	0.0	1.00	34.5420	17.2710	12.4351	0.9	0.85	1000	-1000	1000	0.1	0.01	0	0	1;
...
];

%% branch data
%	fbus	tbus	r	x	b	rateA	rateB	rateC	ratio	angle	status	angmin	angmax
mpc.branch = [
	46843	 47329	 0.000335887	 0.00464389	 0.204565	 1258.0	 1258.0	 1258.0	 0.0	 0.0	 1	 -30.0	 30.0;
	46843	 47452	 0.000374118	 0.00318437	 0.118705	 863.0	 863.0	 863.0	 0.0	 0.0	 1	 -30.0	 30.0;
	46843	 47454	 0.000224613	 0.00210892	 0.0859751	 947.0	 947.0	 947.0	 0.0	 0.0	 1	 -30.0	 30.0;
	46843	 47471	 0.00367076	 0.0304301	 1.22342	 863.0	 863.0	 863.0	 0.0	 0.0	 1	 -30.0	 30.0;
	46843	 47694	 0.000580282	 0.00510198	 0.205714	 907.0	 907.0	 907.0	 0.0	 0.0	 1	 -30.0	 30.0;
	46844	 47322	 4.01e-05	 0.000716694	 0.0508648	 2226.0	 2226.0	 2226.0	 0.0	 0.0	 1	 -30.0	 30.0;
	46844	 47572	 0.000647049	 0.00533101	 0.212413	 863.0	 863.0	 863.0	 0.0	 0.0	 1	 -30.0	 30.0;
	46845	 47011	 0.00232981	 0.0302514	 2.30876	 1813.0	 1813.0	 1813.0	 0.0	 0.0	 1	 -30.0	 30.0;
	46845	 47286	 0.000143182	 0.0025632	 0.102995	 1446.0	 1446.0	 1446.0	 0.0	 0.0	 1	 -30.0	 30.0;
	46845	 47684	 0.00194442	 0.0165779	 0.619501	 863.0	 863.0	 863.0	 0.0	 0.0	 1	 -30.0	 30.0;
	46846	 47174	 0.00130984	 0.0222025	 0.885455	 1392.0	 1392.0	 1392.0	 0.0	 0.0	 1	 -30.0	 30.0;
	46846	 47399	 0.000131134	 0.00150267	 0.0589543	 1067.0	 1067.0	 1067.0	 0.0	 0.0	 1	 -30.0	 30.0;
	46847	 47066	 0.00102045	 0.00492368	 0.00878453	 292.0	 292.0	 292.0	 0.0	 0.0	 1	 -30.0	 30.0;
	46848	 47011	 0.00199141	 0.016434	 0.65638	 863.0	 863.0	 863.0	 0.0	 0.0	 1	 -30.0	 30.0;
	46848	 47428	 0.000122957	 0.0017006	 0.147007	 2385.0	 2385.0	 2385.0	 0.0	 0.0	 1	 -30.0	 30.0;
	46849	 47236	 0.000849792	 0.00772295	 0.291355	 907.0	 907.0	 907.0	 0.0	 0.0	 1	 -30.0	 30.0;
	46849	 47577	 0.000634934	 0.00523116	 0.208433	 863.0	 863.0	 863.0	 0.0	 0.0	 1	 -30.0	 30.0;
	46850	 47399	 0.000530536	 0.00514936	 0.196327	 947.0	 947.0	 947.0	 0.0	 0.0	 1	 -30.0	 30.0;
	46850	 49032	 0.000697953	 0.00759483	 0.295312	 1028.0	 1028.0	 1028.0	 0.0	 0.0	 1	 -30.0	 30.0;
	46851	 47194	 0.00234087	 0.0199739	 0.747268	 863.0	 863.0	 863.0	 0.0	 0.0	 1	 -30.0	 30.0;
	46851	 47577	 0.000873919	 0.00848471	 0.323632	 947.0	 947.0	 947.0	 0.0	 0.0	 1	 -30.0	 30.0;
	46851	 47761	 0.00108579	 0.0367092	 3.76339	 4708.0	 4708.0	 4708.0	 0.0	 0.0	 1	 -30.0	 30.0;
	46852	 46882	 0.000230162	 0.0002671	 0.00382317	 244.0	 244.0	 244.0	 0.0	 0.0	 1	 -30.0	 30.0;
	46852	 47323	 0.0010055	 0.0045852	 0.0346398	 398.0	 398.0	 398.0	 0.0	 0.0	 1	 -30.0	 30.0;
	46853	 47097	 0.000805994	 0.00848367	 0.353096	 1028.0	 1028.0	 1028.0	 0.0	 0.0	 1	 -30.0	 30.0;
...